/*---------------------------------------------------------------------------*\
| =========                 |                                                 |
| \\      /  F ield         | OpenFOAM: The Open Source CFD Toolbox           |
|  \\    /   O peration     | Version:  4.0                                   |
|   \\  /    A nd           | Web:      www.OpenFOAM.org                      |
|    \\/     M anipulation  |                                                 |
\*---------------------------------------------------------------------------*/
Build  : 4.0
Exec   : pimpleFoam -parallel
Date   : Sep 22 2017
Time   : 09:23:20
Host   : "comp-pc3240.leeds.ac.uk"
PID    : 16670
Case   : /usr/not-backed-up/cfd/channel/channel_forced
nProcs : 4
Slaves : 
3
(
"comp-pc3240.leeds.ac.uk.16671"
"comp-pc3240.leeds.ac.uk.16672"
"comp-pc3240.leeds.ac.uk.16673"
)

Pstream initialized with:
    floatTransfer      : 0
    nProcsSimpleSum    : 0
    commsType          : nonBlocking
    polling iterations : 0
fileModificationChecking : Monitoring run-time modified files using timeStampMaster
allowSystemOperations : Allowing user-supplied system call operations

// * * * * * * * * * * * * * * * * * * * * * * * * * * * * * * * * * * * * * //
Create time

Create mesh for time = 0


PIMPLE: max iterations = 10
    field p	: relTol 0, tolerance 1e-06
    field U	: relTol 0, tolerance 1e-08

Reading field p

Reading field U

Reading/calculating face flux field phi

Selecting incompressible transport model Newtonian
Selecting turbulence model type LES
Selecting LES turbulence model dynamicKEqn
Selecting LES delta type cubeRootVol
dynamicKEqnCoeffs
{
    filter          simple;
    Ce              1.048;
}

No MRF models present

Creating finite volume options from "system/fvOptions"

Selecting finite volume options model type meanVelocityForce
    Source: momentumSource
    - selecting all cells
    - selected 1411800 cell(s) with volume 0.0416923
    Initial pressure gradient = 0


Starting time loop

fieldAverage fieldAverage1:
    Starting averaging at time 0

Courant Number mean: 0 max: 0
deltaT = 1.19999e-06
Time = 1.19999e-06

PIMPLE: iteration 1
smoothSolver:  Solving for Ux, Initial residual = 0, Final residual = 0, No Iterations 0
smoothSolver:  Solving for Uy, Initial residual = 0, Final residual = 0, No Iterations 0
smoothSolver:  Solving for Uz, Initial residual = 0, Final residual = 0, No Iterations 0
Pressure gradient source: uncorrected Ubar = 0, pressure gradient = 812507
GAMG:  Solving for p, Initial residual = 1, Final residual = 0.000863938, No Iterations 12
time step continuity errors : sum local = 3.08635e-17, global = 1.59844e-31, cumulative = 1.59844e-31
Pressure gradient source: uncorrected Ubar = 3.52487e-08, pressure gradient = 812507
GAMG:  Solving for p, Initial residual = 0.538542, Final residual = 0.000460693, No Iterations 12
time step continuity errors : sum local = 2.13897e-17, global = 4.98784e-31, cumulative = 6.58628e-31
Pressure gradient source: uncorrected Ubar = 3.52487e-08, pressure gradient = 812507
GAMG:  Solving for p, Initial residual = 0.538515, Final residual = 0.000464029, No Iterations 12
time step continuity errors : sum local = 2.15475e-17, global = 1.41843e-30, cumulative = 2.07706e-30
Pressure gradient source: uncorrected Ubar = 3.52487e-08, pressure gradient = 812507
smoothSolver:  Solving for k, Initial residual = 1, Final residual = 5.49714e-19, No Iterations 1
bounding k, min: 2.37915e-16 max: 0.00014 average: 0.000126443
PIMPLE: iteration 2
smoothSolver:  Solving for Ux, Initial residual = 1, Final residual = 3.23627e-06, No Iterations 1
smoothSolver:  Solving for Uy, Initial residual = 0.287224, Final residual = 1.46851e-07, No Iterations 1
smoothSolver:  Solving for Uz, Initial residual = 0.285597, Final residual = 4.54285e-07, No Iterations 1
Pressure gradient source: uncorrected Ubar = 0.350872, pressure gradient = 162372
GAMG:  Solving for p, Initial residual = 1, Final residual = 0.000933887, No Iterations 15
time step continuity errors : sum local = 2.69053e-11, global = 1.06187e-23, cumulative = 1.06187e-23
Pressure gradient source: uncorrected Ubar = 0.350841, pressure gradient = 162502
GAMG:  Solving for p, Initial residual = 0.53849, Final residual = 0.000513804, No Iterations 15
time step continuity errors : sum local = 1.92515e-11, global = 1.05475e-23, cumulative = 2.11662e-23
Pressure gradient source: uncorrected Ubar = 0.350841, pressure gradient = 162502
GAMG:  Solving for p, Initial residual = 0.538442, Final residual = 0.000515053, No Iterations 15
time step continuity errors : sum local = 1.9301e-11, global = 1.71183e-23, cumulative = 3.82845e-23
Pressure gradient source: uncorrected Ubar = 0.350841, pressure gradient = 162502
smoothSolver:  Solving for k, Initial residual = 0.00359604, Final residual = 3.89939e-08, No Iterations 1
PIMPLE: iteration 3
smoothSolver:  Solving for Ux, Initial residual = 0.28639, Final residual = 7.2486e-08, No Iterations 1
smoothSolver:  Solving for Uy, Initial residual = 0.286245, Final residual = 3.50708e-08, No Iterations 1
smoothSolver:  Solving for Uz, Initial residual = 0.286641, Final residual = 3.78503e-09, No Iterations 1
Pressure gradient source: uncorrected Ubar = 0.195, pressure gradient = 162501
GAMG:  Solving for p, Initial residual = 0.987606, Final residual = 0.000852636, No Iterations 12
time step continuity errors : sum local = 1.15118e-11, global = 5.99665e-24, cumulative = 4.42812e-23
Pressure gradient source: uncorrected Ubar = 0.195, pressure gradient = 162501
GAMG:  Solving for p, Initial residual = 0.974039, Final residual = 0.000658817, No Iterations 16
time step continuity errors : sum local = 6.46806e-12, global = 5.00301e-24, cumulative = 4.92842e-23
Pressure gradient source: uncorrected Ubar = 0.195, pressure gradient = 162501
GAMG:  Solving for p, Initial residual = 0.974011, Final residual = 0.000950333, No Iterations 12
time step continuity errors : sum local = 9.11182e-12, global = 4.9872e-24, cumulative = 5.42714e-23
Pressure gradient source: uncorrected Ubar = 0.195, pressure gradient = 162501
smoothSolver:  Solving for k, Initial residual = 0.606564, Final residual = 8.31169e-07, No Iterations 1
PIMPLE: iteration 4
smoothSolver:  Solving for Ux, Initial residual = 0.0793919, Final residual = 1.08869e-08, No Iterations 1
smoothSolver:  Solving for Uy, Initial residual = 0.0813212, Final residual = 5.59852e-09, No Iterations 1
smoothSolver:  Solving for Uz, Initial residual = 0.0879584, Final residual = 8.50961e-10, No Iterations 1
Pressure gradient source: uncorrected Ubar = 0.195, pressure gradient = 162501
GAMG:  Solving for p, Initial residual = 0.97727, Final residual = 0.000861202, No Iterations 15
time step continuity errors : sum local = 9.42484e-12, global = 1.13934e-23, cumulative = 6.56648e-23
Pressure gradient source: uncorrected Ubar = 0.195, pressure gradient = 162501
GAMG:  Solving for p, Initial residual = 0.920708, Final residual = 0.000679019, No Iterations 14
time step continuity errors : sum local = 5.55697e-12, global = 8.23765e-24, cumulative = 7.39025e-23
Pressure gradient source: uncorrected Ubar = 0.195, pressure gradient = 162501
GAMG:  Solving for p, Initial residual = 0.920736, Final residual = 0.000619625, No Iterations 14
time step continuity errors : sum local = 5.21353e-12, global = 8.21203e-24, cumulative = 8.21145e-23
Pressure gradient source: uncorrected Ubar = 0.195, pressure gradient = 162501
smoothSolver:  Solving for k, Initial residual = 0.299446, Final residual = 1.88463e-07, No Iterations 1
PIMPLE: iteration 5
smoothSolver:  Solving for Ux, Initial residual = 0.0911568, Final residual = 1.3725e-08, No Iterations 1
smoothSolver:  Solving for Uy, Initial residual = 0.0831574, Final residual = 6.33408e-09, No Iterations 1
smoothSolver:  Solving for Uz, Initial residual = 0.0582459, Final residual = 7.23157e-10, No Iterations 1
Pressure gradient source: uncorrected Ubar = 0.195, pressure gradient = 162501
GAMG:  Solving for p, Initial residual = 0.921993, Final residual = 0.000911594, No Iterations 13
time step continuity errors : sum local = 6.90597e-12, global = 1.18657e-23, cumulative = 9.39803e-23
Pressure gradient source: uncorrected Ubar = 0.195, pressure gradient = 162501
GAMG:  Solving for p, Initial residual = 0.723318, Final residual = 0.000703715, No Iterations 12
time step continuity errors : sum local = 4.85389e-12, global = 4.20853e-24, cumulative = 9.81888e-23
Pressure gradient source: uncorrected Ubar = 0.195, pressure gradient = 162501
GAMG:  Solving for p, Initial residual = 0.723335, Final residual = 0.000670744, No Iterations 16
time step continuity errors : sum local = 4.6003e-12, global = 8.40559e-24, cumulative = 1.06594e-22
Pressure gradient source: uncorrected Ubar = 0.195, pressure gradient = 162501
smoothSolver:  Solving for k, Initial residual = 0.233631, Final residual = 9.53491e-08, No Iterations 1
PIMPLE: iteration 6
smoothSolver:  Solving for Ux, Initial residual = 0.364077, Final residual = 5.35387e-08, No Iterations 1
smoothSolver:  Solving for Uy, Initial residual = 0.32313, Final residual = 2.38104e-08, No Iterations 1
smoothSolver:  Solving for Uz, Initial residual = 0.219362, Final residual = 2.40046e-09, No Iterations 1
Pressure gradient source: uncorrected Ubar = 0.195, pressure gradient = 162501
GAMG:  Solving for p, Initial residual = 0.672512, Final residual = 0.000590162, No Iterations 11
time step continuity errors : sum local = 3.10779e-12, global = 7.12677e-24, cumulative = 1.13721e-22
Pressure gradient source: uncorrected Ubar = 0.195, pressure gradient = 162501
GAMG:  Solving for p, Initial residual = 0.424221, Final residual = 0.000270066, No Iterations 9
time step continuity errors : sum local = 1.58001e-12, global = 9.30374e-24, cumulative = 1.23025e-22
Pressure gradient source: uncorrected Ubar = 0.195, pressure gradient = 162501
GAMG:  Solving for p, Initial residual = 0.424219, Final residual = 0.000423323, No Iterations 9
time step continuity errors : sum local = 2.49024e-12, global = 6.21743e-24, cumulative = 1.29242e-22
Pressure gradient source: uncorrected Ubar = 0.195, pressure gradient = 162501
smoothSolver:  Solving for k, Initial residual = 0.415616, Final residual = 3.57357e-07, No Iterations 1
PIMPLE: iteration 7
smoothSolver:  Solving for Ux, Initial residual = 0.824716, Final residual = 1.19368e-07, No Iterations 1
smoothSolver:  Solving for Uy, Initial residual = 0.714556, Final residual = 5.17051e-08, No Iterations 1
smoothSolver:  Solving for Uz, Initial residual = 0.456974, Final residual = 4.78054e-09, No Iterations 1
Pressure gradient source: uncorrected Ubar = 0.195, pressure gradient = 162501
GAMG:  Solving for p, Initial residual = 0.361676, Final residual = 0.000239135, No Iterations 12
time step continuity errors : sum local = 9.75379e-13, global = 5.39128e-24, cumulative = 1.34634e-22
Pressure gradient source: uncorrected Ubar = 0.195, pressure gradient = 162501
GAMG:  Solving for p, Initial residual = 0.248681, Final residual = 0.000230827, No Iterations 11
time step continuity errors : sum local = 9.53947e-13, global = 2.13629e-24, cumulative = 1.3677e-22
Pressure gradient source: uncorrected Ubar = 0.195, pressure gradient = 162501
GAMG:  Solving for p, Initial residual = 0.248684, Final residual = 0.000161027, No Iterations 11
time step continuity errors : sum local = 6.67642e-13, global = 9.44301e-24, cumulative = 1.46213e-22
Pressure gradient source: uncorrected Ubar = 0.195, pressure gradient = 162501
smoothSolver:  Solving for k, Initial residual = 0.282309, Final residual = 2.38183e-07, No Iterations 1
PIMPLE: iteration 8
smoothSolver:  Solving for Ux, Initial residual = 0.501638, Final residual = 7.0777e-08, No Iterations 1
smoothSolver:  Solving for Uy, Initial residual = 0.512696, Final residual = 3.62734e-08, No Iterations 1
smoothSolver:  Solving for Uz, Initial residual = 0.523547, Final residual = 5.3606e-09, No Iterations 1
Pressure gradient source: uncorrected Ubar = 0.195, pressure gradient = 162501
GAMG:  Solving for p, Initial residual = 0.497973, Final residual = 0.000478344, No Iterations 12
time step continuity errors : sum local = 1.4601e-12, global = 1.04479e-23, cumulative = 1.56661e-22
Pressure gradient source: uncorrected Ubar = 0.195, pressure gradient = 162501
GAMG:  Solving for p, Initial residual = 0.391994, Final residual = 0.000331212, No Iterations 13
time step continuity errors : sum local = 9.01841e-13, global = 1.18335e-23, cumulative = 1.68494e-22
Pressure gradient source: uncorrected Ubar = 0.195, pressure gradient = 162501
GAMG:  Solving for p, Initial residual = 0.391999, Final residual = 0.000367608, No Iterations 14
time step continuity errors : sum local = 1.00372e-12, global = 4.18304e-24, cumulative = 1.72677e-22
Pressure gradient source: uncorrected Ubar = 0.195, pressure gradient = 162501
smoothSolver:  Solving for k, Initial residual = 0.321829, Final residual = 2.70863e-07, No Iterations 1
PIMPLE: iteration 9
smoothSolver:  Solving for Ux, Initial residual = 0.194137, Final residual = 2.51098e-08, No Iterations 1
smoothSolver:  Solving for Uy, Initial residual = 0.218674, Final residual = 1.40738e-08, No Iterations 1
smoothSolver:  Solving for Uz, Initial residual = 0.318782, Final residual = 2.87248e-09, No Iterations 1
Pressure gradient source: uncorrected Ubar = 0.195, pressure gradient = 162501
GAMG:  Solving for p, Initial residual = 0.780284, Final residual = 0.000647173, No Iterations 14
time step continuity errors : sum local = 1.57654e-12, global = 7.35739e-24, cumulative = 1.80035e-22
Pressure gradient source: uncorrected Ubar = 0.195, pressure gradient = 162501
GAMG:  Solving for p, Initial residual = 0.677657, Final residual = 0.000609919, No Iterations 17
time step continuity errors : sum local = 1.18017e-12, global = 9.75154e-24, cumulative = 1.89786e-22
Pressure gradient source: uncorrected Ubar = 0.195, pressure gradient = 162501
GAMG:  Solving for p, Initial residual = 0.677669, Final residual = 0.000495895, No Iterations 10
time step continuity errors : sum local = 9.59343e-13, global = 5.514e-24, cumulative = 1.953e-22
Pressure gradient source: uncorrected Ubar = 0.195, pressure gradient = 162501
smoothSolver:  Solving for k, Initial residual = 0.22275, Final residual = 6.18777e-08, No Iterations 1
PIMPLE: iteration 10
smoothSolver:  Solving for Ux, Initial residual = 0.226996, Final residual = 2.6433e-08, No Iterations 1
smoothSolver:  Solving for Uy, Initial residual = 0.301375, Final residual = 2.48951e-08, No Iterations 1
smoothSolver:  Solving for Uz, Initial residual = 0.526506, Final residual = 1.90431e-08, No Iterations 1
Pressure gradient source: uncorrected Ubar = 0.195, pressure gradient = 162501
GAMG:  Solving for p, Initial residual = 0.999869, Final residual = 0.000886688, No Iterations 9
time step continuity errors : sum local = 4.62554e-12, global = 6.0088e-24, cumulative = 2.01309e-22
Pressure gradient source: uncorrected Ubar = 0.195, pressure gradient = 162501
GAMG:  Solving for p, Initial residual = 0.990284, Final residual = 0.000934886, No Iterations 50
time step continuity errors : sum local = 4.44376e-15, global = 7.58531e-24, cumulative = 2.08894e-22
Pressure gradient source: uncorrected Ubar = 0.195, pressure gradient = 162501
GAMG:  Solving for p, Initial residual = 0.928111, Final residual = 9.23353e-07, No Iterations 111
time step continuity errors : sum local = 5.85332e-21, global = 6.16478e-24, cumulative = 2.15059e-22
Pressure gradient source: uncorrected Ubar = 0.195, pressure gradient = 162501
smoothSolver:  Solving for k, Initial residual = 0.520333, Final residual = 1.67903e-07, No Iterations 1
PIMPLE: not converged within 10 iterations
ExecutionTime = 91.98 s  ClockTime = 100 s

    Reading/initialising field UMean
    Reading/initialising field pMean
    Reading/initialising field UPrime2Mean
    Reading/initialising field pPrime2Mean
fieldAverage fieldAverage1 write:
    Calculating averages

Courant Number mean: 7.31244e-05 max: 7.31244e-05
deltaT = 1.43997e-06
Time = 2.63996e-06

PIMPLE: iteration 1
smoothSolver:  Solving for Ux, Initial residual = 1, Final residual = 3.79251e-06, No Iterations 1
smoothSolver:  Solving for Uy, Initial residual = 0.0828302, Final residual = 1.94382e-07, No Iterations 1
smoothSolver:  Solving for Uz, Initial residual = 0.0751884, Final residual = 7.81153e-08, No Iterations 1
Pressure gradient source: uncorrected Ubar = 0.241747, pressure gradient = -162590
GAMG:  Solving for p, Initial residual = 1, Final residual = 0.000716228, No Iterations 9
time step continuity errors : sum local = 5.98276e-12, global = 1.2022e-23, cumulative = 2.27081e-22
Pressure gradient source: uncorrected Ubar = 0.241734, pressure gradient = -162501
GAMG:  Solving for p, Initial residual = 0.538623, Final residual = 0.000477479, No Iterations 8
time step continuity errors : sum local = 5.02922e-12, global = 5.52072e-24, cumulative = 2.32602e-22
Pressure gradient source: uncorrected Ubar = 0.241734, pressure gradient = -162501
GAMG:  Solving for p, Initial residual = 0.538447, Final residual = 0.000371357, No Iterations 9
time step continuity errors : sum local = 4.0165e-12, global = 1.89753e-23, cumulative = 2.51577e-22
Pressure gradient source: uncorrected Ubar = 0.241734, pressure gradient = -162501
smoothSolver:  Solving for k, Initial residual = 1, Final residual = 3.33162e-13, No Iterations 1
bounding k, min: 4.32899e-16 max: 0.000140038 average: 3.96433e-05
PIMPLE: iteration 2
smoothSolver:  Solving for Ux, Initial residual = 0.286632, Final residual = 2.37539e-08, No Iterations 1
smoothSolver:  Solving for Uy, Initial residual = 0.286376, Final residual = 2.74329e-08, No Iterations 1
smoothSolver:  Solving for Uz, Initial residual = 0.286577, Final residual = 2.37835e-08, No Iterations 1
Pressure gradient source: uncorrected Ubar = 0.195, pressure gradient = -162501
GAMG:  Solving for p, Initial residual = 0.986563, Final residual = 0.000860203, No Iterations 12
time step continuity errors : sum local = 3.26523e-12, global = 7.37931e-24, cumulative = 2.58957e-22
Pressure gradient source: uncorrected Ubar = 0.195, pressure gradient = -162501
GAMG:  Solving for p, Initial residual = 0.972105, Final residual = 0.000901385, No Iterations 12
time step continuity errors : sum local = 2.43239e-12, global = 8.41581e-24, cumulative = 2.67372e-22
Pressure gradient source: uncorrected Ubar = 0.195, pressure gradient = -162501
GAMG:  Solving for p, Initial residual = 0.972106, Final residual = 0.000893234, No Iterations 12
time step continuity errors : sum local = 2.41021e-12, global = 9.04227e-24, cumulative = 2.76415e-22
Pressure gradient source: uncorrected Ubar = 0.195, pressure gradient = -162501
smoothSolver:  Solving for k, Initial residual = 0.765644, Final residual = 3.16742e-07, No Iterations 1
PIMPLE: iteration 3
smoothSolver:  Solving for Ux, Initial residual = 0.0809614, Final residual = 5.7303e-09, No Iterations 1
smoothSolver:  Solving for Uy, Initial residual = 0.082357, Final residual = 6.04093e-09, No Iterations 1
smoothSolver:  Solving for Uz, Initial residual = 0.0869443, Final residual = 5.26719e-09, No Iterations 1
Pressure gradient source: uncorrected Ubar = 0.195, pressure gradient = -162501
GAMG:  Solving for p, Initial residual = 0.975679, Final residual = 0.0008789, No Iterations 12
time step continuity errors : sum local = 2.75203e-12, global = 1.22089e-23, cumulative = 2.88623e-22
Pressure gradient source: uncorrected Ubar = 0.195, pressure gradient = -162501
GAMG:  Solving for p, Initial residual = 0.912442, Final residual = 0.00087532, No Iterations 12
time step continuity errors : sum local = 2.05302e-12, global = 7.16876e-24, cumulative = 2.95792e-22
Pressure gradient source: uncorrected Ubar = 0.195, pressure gradient = -162501
GAMG:  Solving for p, Initial residual = 0.912443, Final residual = 0.000867373, No Iterations 12
time step continuity errors : sum local = 2.03422e-12, global = 1.20131e-23, cumulative = 3.07805e-22
Pressure gradient source: uncorrected Ubar = 0.195, pressure gradient = -162501
smoothSolver:  Solving for k, Initial residual = 0.529438, Final residual = 1.03005e-07, No Iterations 1
PIMPLE: iteration 4
smoothSolver:  Solving for Ux, Initial residual = 0.0846074, Final residual = 5.74334e-09, No Iterations 1
smoothSolver:  Solving for Uy, Initial residual = 0.0781975, Final residual = 6.4579e-09, No Iterations 1
smoothSolver:  Solving for Uz, Initial residual = 0.0613891, Final residual = 5.06257e-09, No Iterations 1
Pressure gradient source: uncorrected Ubar = 0.195, pressure gradient = -162501
GAMG:  Solving for p, Initial residual = 0.912902, Final residual = 0.000816098, No Iterations 12
time step continuity errors : sum local = 1.7649e-12, global = 7.63307e-24, cumulative = 3.15438e-22
Pressure gradient source: uncorrected Ubar = 0.195, pressure gradient = -162501
GAMG:  Solving for p, Initial residual = 0.70492, Final residual = 0.000672369, No Iterations 12
time step continuity errors : sum local = 1.31919e-12, global = 5.52757e-24, cumulative = 3.20966e-22
Pressure gradient source: uncorrected Ubar = 0.195, pressure gradient = -162501
GAMG:  Solving for p, Initial residual = 0.704918, Final residual = 0.000665819, No Iterations 12
time step continuity errors : sum local = 1.30623e-12, global = 6.90855e-24, cumulative = 3.27875e-22
Pressure gradient source: uncorrected Ubar = 0.195, pressure gradient = -162501
smoothSolver:  Solving for k, Initial residual = 0.168599, Final residual = 2.82933e-08, No Iterations 1
PIMPLE: iteration 5
smoothSolver:  Solving for Ux, Initial residual = 0.331588, Final residual = 2.18958e-08, No Iterations 1
smoothSolver:  Solving for Uy, Initial residual = 0.298519, Final residual = 2.37666e-08, No Iterations 1
smoothSolver:  Solving for Uz, Initial residual = 0.23132, Final residual = 1.68744e-08, No Iterations 1
Pressure gradient source: uncorrected Ubar = 0.195, pressure gradient = -162501
GAMG:  Solving for p, Initial residual = 0.649293, Final residual = 0.000442972, No Iterations 7
time step continuity errors : sum local = 6.60357e-13, global = 7.06101e-24, cumulative = 3.34936e-22
Pressure gradient source: uncorrected Ubar = 0.195, pressure gradient = -162501
GAMG:  Solving for p, Initial residual = 0.4092, Final residual = 0.000223252, No Iterations 8
time step continuity errors : sum local = 3.70815e-13, global = 2.95498e-24, cumulative = 3.37891e-22
Pressure gradient source: uncorrected Ubar = 0.195, pressure gradient = -162501
GAMG:  Solving for p, Initial residual = 0.409198, Final residual = 0.000240048, No Iterations 7
time step continuity errors : sum local = 3.98354e-13, global = 5.0995e-24, cumulative = 3.4299e-22
Pressure gradient source: uncorrected Ubar = 0.195, pressure gradient = -162501
smoothSolver:  Solving for k, Initial residual = 0.270408, Final residual = 4.77486e-08, No Iterations 1
PIMPLE: iteration 6
smoothSolver:  Solving for Ux, Initial residual = 0.746665, Final residual = 4.96044e-08, No Iterations 1
smoothSolver:  Solving for Uy, Initial residual = 0.646564, Final residual = 5.04408e-08, No Iterations 1
smoothSolver:  Solving for Uz, Initial residual = 0.483308, Final residual = 3.33567e-08, No Iterations 1
Pressure gradient source: uncorrected Ubar = 0.195, pressure gradient = -162501
GAMG:  Solving for p, Initial residual = 0.362893, Final residual = 0.000318509, No Iterations 9
time step continuity errors : sum local = 3.71552e-13, global = 4.95104e-24, cumulative = 3.47941e-22
Pressure gradient source: uncorrected Ubar = 0.195, pressure gradient = -162501
GAMG:  Solving for p, Initial residual = 0.251475, Final residual = 0.000195449, No Iterations 9
time step continuity errors : sum local = 2.29965e-13, global = 5.04337e-24, cumulative = 3.52984e-22
Pressure gradient source: uncorrected Ubar = 0.195, pressure gradient = -162501
GAMG:  Solving for p, Initial residual = 0.251475, Final residual = 0.000208545, No Iterations 8
time step continuity errors : sum local = 2.48067e-13, global = 9.09331e-24, cumulative = 3.62078e-22
Pressure gradient source: uncorrected Ubar = 0.195, pressure gradient = -162501
smoothSolver:  Solving for k, Initial residual = 0.2897, Final residual = 4.49861e-08, No Iterations 1
PIMPLE: iteration 7
smoothSolver:  Solving for Ux, Initial residual = 0.512161, Final residual = 3.48122e-08, No Iterations 1
smoothSolver:  Solving for Uy, Initial residual = 0.513801, Final residual = 3.89259e-08, No Iterations 1
smoothSolver:  Solving for Uz, Initial residual = 0.521941, Final residual = 3.35933e-08, No Iterations 1
Pressure gradient source: uncorrected Ubar = 0.195, pressure gradient = -162501
GAMG:  Solving for p, Initial residual = 0.520998, Final residual = 0.000307821, No Iterations 13
time step continuity errors : sum local = 2.70741e-13, global = 1.05535e-23, cumulative = 3.72631e-22
Pressure gradient source: uncorrected Ubar = 0.195, pressure gradient = -162501
GAMG:  Solving for p, Initial residual = 0.414498, Final residual = 0.000242649, No Iterations 13
time step continuity errors : sum local = 1.91413e-13, global = 1.03008e-23, cumulative = 3.82932e-22
Pressure gradient source: uncorrected Ubar = 0.195, pressure gradient = -162501
GAMG:  Solving for p, Initial residual = 0.414503, Final residual = 0.000413146, No Iterations 12
time step continuity errors : sum local = 3.17825e-13, global = 5.35874e-24, cumulative = 3.88291e-22
Pressure gradient source: uncorrected Ubar = 0.195, pressure gradient = -162501
smoothSolver:  Solving for k, Initial residual = 0.307326, Final residual = 5.02634e-08, No Iterations 1
PIMPLE: iteration 8
smoothSolver:  Solving for Ux, Initial residual = 0.211735, Final residual = 1.52905e-08, No Iterations 1
smoothSolver:  Solving for Uy, Initial residual = 0.235427, Final residual = 1.63668e-08, No Iterations 1
smoothSolver:  Solving for Uz, Initial residual = 0.302454, Final residual = 1.68619e-08, No Iterations 1
Pressure gradient source: uncorrected Ubar = 0.195, pressure gradient = -162501
GAMG:  Solving for p, Initial residual = 0.795831, Final residual = 0.000631093, No Iterations 11
time step continuity errors : sum local = 4.54408e-13, global = 7.50418e-24, cumulative = 3.95795e-22
Pressure gradient source: uncorrected Ubar = 0.195, pressure gradient = -162501
GAMG:  Solving for p, Initial residual = 0.692875, Final residual = 0.000411167, No Iterations 11
time step continuity errors : sum local = 2.38094e-13, global = 5.47217e-24, cumulative = 4.01267e-22
Pressure gradient source: uncorrected Ubar = 0.195, pressure gradient = -162501
GAMG:  Solving for p, Initial residual = 0.692844, Final residual = 0.00038143, No Iterations 13
time step continuity errors : sum local = 2.19253e-13, global = 5.3819e-24, cumulative = 4.06649e-22
Pressure gradient source: uncorrected Ubar = 0.195, pressure gradient = -162501
smoothSolver:  Solving for k, Initial residual = 0.273799, Final residual = 3.18875e-08, No Iterations 1
PIMPLE: iteration 9
smoothSolver:  Solving for Ux, Initial residual = 0.0692146, Final residual = 6.59268e-09, No Iterations 1
smoothSolver:  Solving for Uy, Initial residual = 0.0941023, Final residual = 4.78723e-09, No Iterations 1
smoothSolver:  Solving for Uz, Initial residual = 0.148833, Final residual = 6.81661e-09, No Iterations 1
Pressure gradient source: uncorrected Ubar = 0.195, pressure gradient = -162501
GAMG:  Solving for p, Initial residual = 0.863592, Final residual = 0.000710037, No Iterations 9
time step continuity errors : sum local = 4.20077e-13, global = 3.75541e-24, cumulative = 4.10404e-22
Pressure gradient source: uncorrected Ubar = 0.195, pressure gradient = -162501
GAMG:  Solving for p, Initial residual = 0.737392, Final residual = 0.000565668, No Iterations 9
time step continuity errors : sum local = 2.68212e-13, global = 8.36169e-24, cumulative = 4.18766e-22
Pressure gradient source: uncorrected Ubar = 0.195, pressure gradient = -162501
GAMG:  Solving for p, Initial residual = 0.737411, Final residual = 0.000651009, No Iterations 9
time step continuity errors : sum local = 3.17716e-13, global = 7.42191e-24, cumulative = 4.26188e-22
Pressure gradient source: uncorrected Ubar = 0.195, pressure gradient = -162501
smoothSolver:  Solving for k, Initial residual = 0.188839, Final residual = 2.3254e-08, No Iterations 1
PIMPLE: iteration 10
smoothSolver:  Solving for Ux, Initial residual = 0.81801, Final residual = 2.82449e-07, No Iterations 1
smoothSolver:  Solving for Uy, Initial residual = 0.746309, Final residual = 3.01742e-07, No Iterations 1
smoothSolver:  Solving for Uz, Initial residual = 0.581163, Final residual = 2.3423e-07, No Iterations 1
Pressure gradient source: uncorrected Ubar = 0.195, pressure gradient = -162501
GAMG:  Solving for p, Initial residual = 0.980256, Final residual = 0.000854741, No Iterations 5
time step continuity errors : sum local = 8.29088e-13, global = -1.14279e-24, cumulative = 4.25045e-22
Pressure gradient source: uncorrected Ubar = 0.195, pressure gradient = -162501
GAMG:  Solving for p, Initial residual = 0.0200291, Final residual = 1.84743e-05, No Iterations 16
time step continuity errors : sum local = 7.73351e-16, global = 1.93456e-25, cumulative = 4.25239e-22
Pressure gradient source: uncorrected Ubar = 0.195, pressure gradient = -162501
GAMG:  Solving for p, Initial residual = 1.85054e-05, Final residual = 9.76604e-07, No Iterations 17
time step continuity errors : sum local = 4.10099e-17, global = -4.23129e-26, cumulative = 4.25196e-22
Pressure gradient source: uncorrected Ubar = 0.195, pressure gradient = -162501
smoothSolver:  Solving for k, Initial residual = 0.605699, Final residual = 4.53246e-08, No Iterations 1
PIMPLE: not converged within 10 iterations
ExecutionTime = 155.3 s  ClockTime = 171 s

fieldAverage fieldAverage1 write:
    Calculating averages

Courant Number mean: 3.51e-05 max: 3.51004e-05
deltaT = 1.72794e-06
Time = 4.3679e-06

PIMPLE: iteration 1
smoothSolver:  Solving for Ux, Initial residual = 0.999999, Final residual = 3.48131e-08, No Iterations 1
smoothSolver:  Solving for Uy, Initial residual = 0.193545, Final residual = 6.15266e-09, No Iterations 1
smoothSolver:  Solving for Uz, Initial residual = 0.193545, Final residual = 5.6323e-09, No Iterations 1
Pressure gradient source: uncorrected Ubar = 0.138842, pressure gradient = 162501
GAMG:  Solving for p, Initial residual = 0.986789, Final residual = 0.000899039, No Iterations 4
time step continuity errors : sum local = 2.77513e-14, global = 7.02735e-25, cumulative = 4.25899e-22
Pressure gradient source: uncorrected Ubar = 0.138842, pressure gradient = 162501
GAMG:  Solving for p, Initial residual = 0.734545, Final residual = 0.000698251, No Iterations 4
time step continuity errors : sum local = 2.02802e-14, global = 4.00149e-24, cumulative = 4.29901e-22
Pressure gradient source: uncorrected Ubar = 0.138842, pressure gradient = 162501
GAMG:  Solving for p, Initial residual = 0.734541, Final residual = 0.000699446, No Iterations 4
time step continuity errors : sum local = 2.03152e-14, global = 1.24864e-24, cumulative = 4.31149e-22
Pressure gradient source: uncorrected Ubar = 0.138842, pressure gradient = 162501
smoothSolver:  Solving for k, Initial residual = 0.974249, Final residual = 5.17055e-16, No Iterations 1
bounding k, min: -2.8616e-13 max: 0.000139919 average: 0.000109321
PIMPLE: iteration 2
smoothSolver:  Solving for Ux, Initial residual = 0.0580321, Final residual = 2.19192e-08, No Iterations 1
smoothSolver:  Solving for Uy, Initial residual = 0.0537842, Final residual = 2.85341e-09, No Iterations 1
smoothSolver:  Solving for Uz, Initial residual = 0.0545536, Final residual = 2.526e-09, No Iterations 1
Pressure gradient source: uncorrected Ubar = 0.195, pressure gradient = 162501
GAMG:  Solving for p, Initial residual = 0.776238, Final residual = 0.000745557, No Iterations 4
time step continuity errors : sum local = 2.16389e-14, global = 1.12903e-23, cumulative = 4.4244e-22
Pressure gradient source: uncorrected Ubar = 0.195, pressure gradient = 162501
GAMG:  Solving for p, Initial residual = 0.457276, Final residual = 0.00045367, No Iterations 4
time step continuity errors : sum local = 1.56517e-14, global = 1.11911e-23, cumulative = 4.53631e-22
Pressure gradient source: uncorrected Ubar = 0.195, pressure gradient = 162501
GAMG:  Solving for p, Initial residual = 0.457273, Final residual = 0.000453387, No Iterations 4
time step continuity errors : sum local = 1.56419e-14, global = 7.06443e-24, cumulative = 4.60695e-22
Pressure gradient source: uncorrected Ubar = 0.195, pressure gradient = 162501
smoothSolver:  Solving for k, Initial residual = 0.316779, Final residual = 1.22333e-06, No Iterations 1
bounding k, min: -5.35839e-05 max: 0.00014 average: 0.000122511
PIMPLE: iteration 3
smoothSolver:  Solving for Ux, Initial residual = 0.107932, Final residual = 4.47769e-08, No Iterations 1
smoothSolver:  Solving for Uy, Initial residual = 0.0978498, Final residual = 8.27832e-09, No Iterations 1
smoothSolver:  Solving for Uz, Initial residual = 0.094033, Final residual = 6.61499e-09, No Iterations 1
Pressure gradient source: uncorrected Ubar = 0.195, pressure gradient = 162501
GAMG:  Solving for p, Initial residual = 0.419567, Final residual = 0.000371679, No Iterations 4
time step continuity errors : sum local = 1.18294e-14, global = 1.34021e-23, cumulative = 4.74097e-22
Pressure gradient source: uncorrected Ubar = 0.195, pressure gradient = 162501
GAMG:  Solving for p, Initial residual = 0.263373, Final residual = 0.000243105, No Iterations 4
time step continuity errors : sum local = 8.63248e-15, global = 8.15483e-24, cumulative = 4.82252e-22
Pressure gradient source: uncorrected Ubar = 0.195, pressure gradient = 162501
GAMG:  Solving for p, Initial residual = 0.263371, Final residual = 0.00024298, No Iterations 4
time step continuity errors : sum local = 8.62796e-15, global = 1.01721e-23, cumulative = 4.92424e-22
Pressure gradient source: uncorrected Ubar = 0.195, pressure gradient = 162501
smoothSolver:  Solving for k, Initial residual = 0.12452, Final residual = 4.06564e-07, No Iterations 1
bounding k, min: -5.19184e-05 max: 0.00014 average: 0.000123476
PIMPLE: iteration 4
smoothSolver:  Solving for Ux, Initial residual = 0.272797, Final residual = 6.7957e-08, No Iterations 1
smoothSolver:  Solving for Uy, Initial residual = 0.251072, Final residual = 1.98142e-08, No Iterations 1
smoothSolver:  Solving for Uz, Initial residual = 0.240418, Final residual = 1.64975e-08, No Iterations 1
Pressure gradient source: uncorrected Ubar = 0.195, pressure gradient = 162501
GAMG:  Solving for p, Initial residual = 0.182741, Final residual = 0.000109155, No Iterations 4
time step continuity errors : sum local = 3.40641e-15, global = 7.83001e-24, cumulative = 5.00254e-22
Pressure gradient source: uncorrected Ubar = 0.195, pressure gradient = 162501
GAMG:  Solving for p, Initial residual = 0.122708, Final residual = 7.94879e-05, No Iterations 4
time step continuity errors : sum local = 2.58744e-15, global = 5.93857e-24, cumulative = 5.06193e-22
Pressure gradient source: uncorrected Ubar = 0.195, pressure gradient = 162501
GAMG:  Solving for p, Initial residual = 0.122708, Final residual = 7.85022e-05, No Iterations 4
time step continuity errors : sum local = 2.55515e-15, global = 1.30966e-23, cumulative = 5.19289e-22
Pressure gradient source: uncorrected Ubar = 0.195, pressure gradient = 162501
smoothSolver:  Solving for k, Initial residual = 0.0919347, Final residual = 2.70818e-07, No Iterations 1
bounding k, min: -5.26801e-05 max: 0.00014 average: 0.000125235
PIMPLE: iteration 5
smoothSolver:  Solving for Ux, Initial residual = 0.451009, Final residual = 9.2056e-08, No Iterations 1
smoothSolver:  Solving for Uy, Initial residual = 0.398334, Final residual = 3.02971e-08, No Iterations 1
smoothSolver:  Solving for Uz, Initial residual = 0.381565, Final residual = 2.58344e-08, No Iterations 1
Pressure gradient source: uncorrected Ubar = 0.195, pressure gradient = 162501
GAMG:  Solving for p, Initial residual = 0.114492, Final residual = 9.53617e-05, No Iterations 4
time step continuity errors : sum local = 2.68966e-15, global = 3.04984e-24, cumulative = 5.22339e-22
Pressure gradient source: uncorrected Ubar = 0.195, pressure gradient = 162501
GAMG:  Solving for p, Initial residual = 0.0810922, Final residual = 6.89989e-05, No Iterations 4
time step continuity errors : sum local = 1.92357e-15, global = 4.52306e-24, cumulative = 5.26862e-22
Pressure gradient source: uncorrected Ubar = 0.195, pressure gradient = 162501
GAMG:  Solving for p, Initial residual = 0.0810917, Final residual = 6.87684e-05, No Iterations 4
time step continuity errors : sum local = 1.9171e-15, global = 9.68696e-24, cumulative = 5.36549e-22
Pressure gradient source: uncorrected Ubar = 0.195, pressure gradient = 162501
smoothSolver:  Solving for k, Initial residual = 0.0453294, Final residual = 9.15135e-08, No Iterations 1
bounding k, min: -5.30704e-05 max: 0.00014 average: 0.000126046
PIMPLE: iteration 6
smoothSolver:  Solving for Ux, Initial residual = 0.394676, Final residual = 7.74442e-08, No Iterations 1
smoothSolver:  Solving for Uy, Initial residual = 0.345124, Final residual = 2.52195e-08, No Iterations 1
smoothSolver:  Solving for Uz, Initial residual = 0.339157, Final residual = 2.25232e-08, No Iterations 1
Pressure gradient source: uncorrected Ubar = 0.195, pressure gradient = 162501
GAMG:  Solving for p, Initial residual = 0.182545, Final residual = 8.30387e-05, No Iterations 5
time step continuity errors : sum local = 2.0618e-15, global = 6.50151e-24, cumulative = 5.43051e-22
Pressure gradient source: uncorrected Ubar = 0.195, pressure gradient = 162501
GAMG:  Solving for p, Initial residual = 0.134024, Final residual = 6.12629e-05, No Iterations 5
time step continuity errors : sum local = 1.45014e-15, global = 9.63586e-24, cumulative = 5.52687e-22
Pressure gradient source: uncorrected Ubar = 0.195, pressure gradient = 162501
GAMG:  Solving for p, Initial residual = 0.134024, Final residual = 6.10925e-05, No Iterations 5
time step continuity errors : sum local = 1.44611e-15, global = 7.04366e-24, cumulative = 5.5973e-22
Pressure gradient source: uncorrected Ubar = 0.195, pressure gradient = 162501
smoothSolver:  Solving for k, Initial residual = 0.0205776, Final residual = 5.66781e-08, No Iterations 1
bounding k, min: -5.32602e-05 max: 0.00014 average: 0.000126396
PIMPLE: iteration 7
smoothSolver:  Solving for Ux, Initial residual = 0.217203, Final residual = 4.85621e-08, No Iterations 1
smoothSolver:  Solving for Uy, Initial residual = 0.197042, Final residual = 1.3664e-08, No Iterations 1
smoothSolver:  Solving for Uz, Initial residual = 0.199115, Final residual = 1.27892e-08, No Iterations 1
Pressure gradient source: uncorrected Ubar = 0.195, pressure gradient = 162501
GAMG:  Solving for p, Initial residual = 0.217705, Final residual = 0.000214961, No Iterations 4
time step continuity errors : sum local = 4.72082e-15, global = 6.89971e-24, cumulative = 5.6663e-22
Pressure gradient source: uncorrected Ubar = 0.195, pressure gradient = 162501
GAMG:  Solving for p, Initial residual = 0.162169, Final residual = 0.000160785, No Iterations 4
time step continuity errors : sum local = 3.31815e-15, global = 1.37811e-23, cumulative = 5.80411e-22
Pressure gradient source: uncorrected Ubar = 0.195, pressure gradient = 162501
GAMG:  Solving for p, Initial residual = 0.162168, Final residual = 0.000160408, No Iterations 4
time step continuity errors : sum local = 3.31033e-15, global = 1.17325e-23, cumulative = 5.92143e-22
Pressure gradient source: uncorrected Ubar = 0.195, pressure gradient = 162501
smoothSolver:  Solving for k, Initial residual = 0.0102889, Final residual = 1.28017e-08, No Iterations 1
bounding k, min: -5.33792e-05 max: 0.00014 average: 0.000126568
PIMPLE: iteration 8
smoothSolver:  Solving for Ux, Initial residual = 0.0997565, Final residual = 3.02567e-08, No Iterations 1
smoothSolver:  Solving for Uy, Initial residual = 0.0925927, Final residual = 7.20225e-09, No Iterations 1
smoothSolver:  Solving for Uz, Initial residual = 0.0936523, Final residual = 5.87284e-09, No Iterations 1
Pressure gradient source: uncorrected Ubar = 0.195, pressure gradient = 162501
GAMG:  Solving for p, Initial residual = 0.194975, Final residual = 0.000165212, No Iterations 4
time step continuity errors : sum local = 3.30559e-15, global = 1.19181e-23, cumulative = 6.04062e-22
Pressure gradient source: uncorrected Ubar = 0.195, pressure gradient = 162501
GAMG:  Solving for p, Initial residual = 0.144386, Final residual = 0.00012356, No Iterations 4
time step continuity errors : sum local = 2.33711e-15, global = 5.71035e-24, cumulative = 6.09772e-22
Pressure gradient source: uncorrected Ubar = 0.195, pressure gradient = 162501
GAMG:  Solving for p, Initial residual = 0.144385, Final residual = 0.000123373, No Iterations 4
time step continuity errors : sum local = 2.33351e-15, global = 5.06384e-24, cumulative = 6.14836e-22
Pressure gradient source: uncorrected Ubar = 0.195, pressure gradient = 162501
smoothSolver:  Solving for k, Initial residual = 0.00628369, Final residual = 5.04438e-09, No Iterations 1
bounding k, min: -5.34451e-05 max: 0.00014 average: 0.000126675
PIMPLE: iteration 9
smoothSolver:  Solving for Ux, Initial residual = 0.151976, Final residual = 2.0166e-08, No Iterations 1
smoothSolver:  Solving for Uy, Initial residual = 0.120592, Final residual = 1.13869e-08, No Iterations 1
smoothSolver:  Solving for Uz, Initial residual = 0.112627, Final residual = 8.12873e-09, No Iterations 1
Pressure gradient source: uncorrected Ubar = 0.195, pressure gradient = 162501
GAMG:  Solving for p, Initial residual = 0.135038, Final residual = 8.84023e-05, No Iterations 4
time step continuity errors : sum local = 1.68317e-15, global = 7.3943e-24, cumulative = 6.2223e-22
Pressure gradient source: uncorrected Ubar = 0.195, pressure gradient = 162501
GAMG:  Solving for p, Initial residual = 0.0982014, Final residual = 6.69168e-05, No Iterations 4
time step continuity errors : sum local = 1.2265e-15, global = 7.43642e-24, cumulative = 6.29667e-22
Pressure gradient source: uncorrected Ubar = 0.195, pressure gradient = 162501
GAMG:  Solving for p, Initial residual = 0.0982012, Final residual = 6.62411e-05, No Iterations 4
time step continuity errors : sum local = 1.21409e-15, global = 7.48966e-24, cumulative = 6.37156e-22
Pressure gradient source: uncorrected Ubar = 0.195, pressure gradient = 162501
smoothSolver:  Solving for k, Initial residual = 0.00342156, Final residual = 2.63997e-09, No Iterations 1
bounding k, min: -5.34688e-05 max: 0.00014 average: 0.000126732
PIMPLE: iteration 10
smoothSolver:  Solving for Ux, Initial residual = 0.71142, Final residual = 3.019e-07, No Iterations 1
smoothSolver:  Solving for Uy, Initial residual = 0.662559, Final residual = 2.96738e-07, No Iterations 1
smoothSolver:  Solving for Uz, Initial residual = 0.634942, Final residual = 2.21859e-07, No Iterations 1
Pressure gradient source: uncorrected Ubar = 0.195, pressure gradient = 162501
GAMG:  Solving for p, Initial residual = 0.14573, Final residual = 0.000118116, No Iterations 3
time step continuity errors : sum local = 1.10228e-14, global = 1.00148e-23, cumulative = 6.47171e-22
Pressure gradient source: uncorrected Ubar = 0.195, pressure gradient = 162501
GAMG:  Solving for p, Initial residual = 0.000128708, Final residual = 1.25738e-07, No Iterations 20
time step continuity errors : sum local = 1.06789e-17, global = 6.6867e-24, cumulative = 6.53858e-22
Pressure gradient source: uncorrected Ubar = 0.195, pressure gradient = 162501
GAMG:  Solving for p, Initial residual = 1.25774e-07, Final residual = 1.25774e-07, No Iterations 0
time step continuity errors : sum local = 1.06821e-17, global = 9.31904e-24, cumulative = 6.63177e-22
Pressure gradient source: uncorrected Ubar = 0.195, pressure gradient = 162501
smoothSolver:  Solving for k, Initial residual = 0.0924237, Final residual = 3.50298e-08, No Iterations 1
bounding k, min: -5.22589e-05 max: 0.00014 average: 0.000125143
PIMPLE: not converged within 10 iterations
ExecutionTime = 201.51 s  ClockTime = 224 s

fieldAverage fieldAverage1 write:
    Calculating averages

Courant Number mean: 0.000105296 max: 0.000105296
deltaT = 2.07348e-06
Time = 6.44138e-06

PIMPLE: iteration 1
smoothSolver:  Solving for Ux, Initial residual = 1, Final residual = 9.82215e-08, No Iterations 1
smoothSolver:  Solving for Uy, Initial residual = 0.797408, Final residual = 7.24491e-08, No Iterations 1
smoothSolver:  Solving for Uz, Initial residual = 0.790474, Final residual = 6.48425e-08, No Iterations 1
Pressure gradient source: uncorrected Ubar = 0.262389, pressure gradient = -162501
GAMG:  Solving for p, Initial residual = 0.657428, Final residual = 0.000506886, No Iterations 5
time step continuity errors : sum local = 2.14316e-14, global = 9.02055e-24, cumulative = 6.72197e-22
Pressure gradient source: uncorrected Ubar = 0.262389, pressure gradient = -162501
GAMG:  Solving for p, Initial residual = 0.429253, Final residual = 0.000350011, No Iterations 6
time step continuity errors : sum local = 1.57628e-14, global = 7.60687e-24, cumulative = 6.79804e-22
Pressure gradient source: uncorrected Ubar = 0.262389, pressure gradient = -162501
GAMG:  Solving for p, Initial residual = 0.429255, Final residual = 0.000266394, No Iterations 4
time step continuity errors : sum local = 1.18895e-14, global = 2.38143e-23, cumulative = 7.03618e-22
Pressure gradient source: uncorrected Ubar = 0.262389, pressure gradient = -162501
smoothSolver:  Solving for k, Initial residual = 0.934007, Final residual = 1.67967e-15, No Iterations 1
PIMPLE: iteration 2
smoothSolver:  Solving for Ux, Initial residual = 0.321081, Final residual = 2.09811e-07, No Iterations 1
smoothSolver:  Solving for Uy, Initial residual = 0.344404, Final residual = 4.87222e-08, No Iterations 1
smoothSolver:  Solving for Uz, Initial residual = 0.350268, Final residual = 4.62767e-08, No Iterations 1
Pressure gradient source: uncorrected Ubar = 0.195, pressure gradient = -162501
GAMG:  Solving for p, Initial residual = 0.786563, Final residual = 0.00067655, No Iterations 4
time step continuity errors : sum local = 2.28496e-14, global = 4.05033e-23, cumulative = 7.44122e-22
Pressure gradient source: uncorrected Ubar = 0.195, pressure gradient = -162501
GAMG:  Solving for p, Initial residual = 0.616422, Final residual = 0.000569409, No Iterations 4
time step continuity errors : sum local = 1.71354e-14, global = 1.86425e-23, cumulative = 7.62764e-22
Pressure gradient source: uncorrected Ubar = 0.195, pressure gradient = -162501
GAMG:  Solving for p, Initial residual = 0.616424, Final residual = 0.000578265, No Iterations 4
time step continuity errors : sum local = 1.73401e-14, global = 2.26507e-23, cumulative = 7.85415e-22
Pressure gradient source: uncorrected Ubar = 0.195, pressure gradient = -162501
smoothSolver:  Solving for k, Initial residual = 0.339067, Final residual = 1.73282e-06, No Iterations 1
PIMPLE: iteration 3
smoothSolver:  Solving for Ux, Initial residual = 0.15608, Final residual = 1.34679e-07, No Iterations 1
smoothSolver:  Solving for Uy, Initial residual = 0.150106, Final residual = 1.82157e-08, No Iterations 1
smoothSolver:  Solving for Uz, Initial residual = 0.152725, Final residual = 1.44498e-08, No Iterations 1
Pressure gradient source: uncorrected Ubar = 0.195, pressure gradient = -162501
GAMG:  Solving for p, Initial residual = 0.777088, Final residual = 0.000420815, No Iterations 5
time step continuity errors : sum local = 1.37594e-14, global = 9.55029e-24, cumulative = 7.94965e-22
Pressure gradient source: uncorrected Ubar = 0.195, pressure gradient = -162501
GAMG:  Solving for p, Initial residual = 0.582566, Final residual = 0.000318801, No Iterations 5
time step continuity errors : sum local = 9.73216e-15, global = 1.91881e-23, cumulative = 8.14153e-22
Pressure gradient source: uncorrected Ubar = 0.195, pressure gradient = -162501
GAMG:  Solving for p, Initial residual = 0.582567, Final residual = 0.000317891, No Iterations 5
time step continuity errors : sum local = 9.70477e-15, global = 2.37077e-23, cumulative = 8.37861e-22
Pressure gradient source: uncorrected Ubar = 0.195, pressure gradient = -162501
smoothSolver:  Solving for k, Initial residual = 0.14659, Final residual = 3.89175e-08, No Iterations 1
PIMPLE: iteration 4
smoothSolver:  Solving for Ux, Initial residual = 0.0778397, Final residual = 1.11326e-07, No Iterations 1
smoothSolver:  Solving for Uy, Initial residual = 0.0632029, Final residual = 1.17657e-08, No Iterations 1
smoothSolver:  Solving for Uz, Initial residual = 0.0633605, Final residual = 7.34999e-09, No Iterations 1
Pressure gradient source: uncorrected Ubar = 0.195, pressure gradient = -162501
GAMG:  Solving for p, Initial residual = 0.682366, Final residual = 0.000552101, No Iterations 4
time step continuity errors : sum local = 1.7173e-14, global = 2.9887e-23, cumulative = 8.67748e-22
Pressure gradient source: uncorrected Ubar = 0.195, pressure gradient = -162501
GAMG:  Solving for p, Initial residual = 0.453131, Final residual = 0.000393405, No Iterations 4
time step continuity errors : sum local = 1.28829e-14, global = 1.34418e-23, cumulative = 8.8119e-22
Pressure gradient source: uncorrected Ubar = 0.195, pressure gradient = -162501
GAMG:  Solving for p, Initial residual = 0.453128, Final residual = 0.000380628, No Iterations 4
time step continuity errors : sum local = 1.24749e-14, global = 1.93657e-23, cumulative = 9.00556e-22
Pressure gradient source: uncorrected Ubar = 0.195, pressure gradient = -162501
smoothSolver:  Solving for k, Initial residual = 0.0455555, Final residual = 2.03989e-08, No Iterations 1
PIMPLE: iteration 5
smoothSolver:  Solving for Ux, Initial residual = 0.0856574, Final residual = 9.10116e-08, No Iterations 1
smoothSolver:  Solving for Uy, Initial residual = 0.075513, Final residual = 1.57081e-08, No Iterations 1
smoothSolver:  Solving for Uz, Initial residual = 0.0751884, Final residual = 1.26324e-08, No Iterations 1
Pressure gradient source: uncorrected Ubar = 0.195, pressure gradient = -162501
GAMG:  Solving for p, Initial residual = 0.50038, Final residual = 0.00039153, No Iterations 4
time step continuity errors : sum local = 1.2176e-14, global = 2.07942e-23, cumulative = 9.2135e-22
Pressure gradient source: uncorrected Ubar = 0.195, pressure gradient = -162501
GAMG:  Solving for p, Initial residual = 0.334322, Final residual = 0.000270913, No Iterations 4
time step continuity errors : sum local = 8.82967e-15, global = 2.21916e-23, cumulative = 9.43541e-22
Pressure gradient source: uncorrected Ubar = 0.195, pressure gradient = -162501
GAMG:  Solving for p, Initial residual = 0.334321, Final residual = 0.000269696, No Iterations 4
time step continuity errors : sum local = 8.78808e-15, global = 1.20095e-23, cumulative = 9.55551e-22
Pressure gradient source: uncorrected Ubar = 0.195, pressure gradient = -162501
smoothSolver:  Solving for k, Initial residual = 0.0517929, Final residual = 8.95366e-08, No Iterations 1
PIMPLE: iteration 6
smoothSolver:  Solving for Ux, Initial residual = 0.117173, Final residual = 6.87184e-08, No Iterations 1
smoothSolver:  Solving for Uy, Initial residual = 0.114139, Final residual = 2.14876e-08, No Iterations 1
smoothSolver:  Solving for Uz, Initial residual = 0.115344, Final residual = 1.88207e-08, No Iterations 1
Pressure gradient source: uncorrected Ubar = 0.195, pressure gradient = -162501
GAMG:  Solving for p, Initial residual = 0.361023, Final residual = 0.000191499, No Iterations 5
time step continuity errors : sum local = 5.85729e-15, global = 2.15064e-23, cumulative = 9.77057e-22
Pressure gradient source: uncorrected Ubar = 0.195, pressure gradient = -162501
GAMG:  Solving for p, Initial residual = 0.248997, Final residual = 0.000207314, No Iterations 4
time step continuity errors : sum local = 6.33976e-15, global = 2.60444e-23, cumulative = 1.0031e-21
Pressure gradient source: uncorrected Ubar = 0.195, pressure gradient = -162501
GAMG:  Solving for p, Initial residual = 0.248999, Final residual = 0.000140982, No Iterations 5
time step continuity errors : sum local = 4.35806e-15, global = 3.34013e-23, cumulative = 1.0365e-21
Pressure gradient source: uncorrected Ubar = 0.195, pressure gradient = -162501
smoothSolver:  Solving for k, Initial residual = 0.0525847, Final residual = 5.39044e-08, No Iterations 1
PIMPLE: iteration 7
smoothSolver:  Solving for Ux, Initial residual = 0.128481, Final residual = 3.54727e-08, No Iterations 1
smoothSolver:  Solving for Uy, Initial residual = 0.129525, Final residual = 2.44714e-08, No Iterations 1
smoothSolver:  Solving for Uz, Initial residual = 0.132179, Final residual = 2.02816e-08, No Iterations 1
Pressure gradient source: uncorrected Ubar = 0.195, pressure gradient = -162501
GAMG:  Solving for p, Initial residual = 0.312731, Final residual = 0.000207806, No Iterations 5
time step continuity errors : sum local = 5.81334e-15, global = 2.72846e-23, cumulative = 1.06379e-21
Pressure gradient source: uncorrected Ubar = 0.195, pressure gradient = -162501
GAMG:  Solving for p, Initial residual = 0.222639, Final residual = 0.000178661, No Iterations 4
time step continuity errors : sum local = 4.85135e-15, global = 2.23487e-23, cumulative = 1.08614e-21
Pressure gradient source: uncorrected Ubar = 0.195, pressure gradient = -162501
GAMG:  Solving for p, Initial residual = 0.222643, Final residual = 0.000124735, No Iterations 5
time step continuity errors : sum local = 3.43427e-15, global = 2.34217e-23, cumulative = 1.10956e-21
Pressure gradient source: uncorrected Ubar = 0.195, pressure gradient = -162501
smoothSolver:  Solving for k, Initial residual = 0.0416605, Final residual = 7.14993e-08, No Iterations 1
PIMPLE: iteration 8
smoothSolver:  Solving for Ux, Initial residual = 0.125191, Final residual = 8.46326e-08, No Iterations 1
smoothSolver:  Solving for Uy, Initial residual = 0.121215, Final residual = 2.91124e-08, No Iterations 1
smoothSolver:  Solving for Uz, Initial residual = 0.123974, Final residual = 2.46137e-08, No Iterations 1
Pressure gradient source: uncorrected Ubar = 0.195, pressure gradient = -162501
GAMG:  Solving for p, Initial residual = 0.345001, Final residual = 0.000171058, No Iterations 5
time step continuity errors : sum local = 4.32913e-15, global = 2.13917e-23, cumulative = 1.13095e-21
Pressure gradient source: uncorrected Ubar = 0.195, pressure gradient = -162501
GAMG:  Solving for p, Initial residual = 0.251178, Final residual = 0.000125753, No Iterations 5
time step continuity errors : sum local = 3.05963e-15, global = 2.6769e-23, cumulative = 1.15772e-21
Pressure gradient source: uncorrected Ubar = 0.195, pressure gradient = -162501
GAMG:  Solving for p, Initial residual = 0.251177, Final residual = 0.000225639, No Iterations 7
time step continuity errors : sum local = 5.37797e-15, global = 2.87404e-23, cumulative = 1.18646e-21
Pressure gradient source: uncorrected Ubar = 0.195, pressure gradient = -162501
smoothSolver:  Solving for k, Initial residual = 0.0291613, Final residual = 6.35877e-08, No Iterations 1
PIMPLE: iteration 9
smoothSolver:  Solving for Ux, Initial residual = 0.118947, Final residual = 1.35618e-07, No Iterations 1
smoothSolver:  Solving for Uy, Initial residual = 0.0987552, Final residual = 2.97643e-08, No Iterations 1
smoothSolver:  Solving for Uz, Initial residual = 0.0995598, Final residual = 2.50884e-08, No Iterations 1
Pressure gradient source: uncorrected Ubar = 0.195, pressure gradient = -162501
GAMG:  Solving for p, Initial residual = 0.374903, Final residual = 0.000332098, No Iterations 7
time step continuity errors : sum local = 7.49877e-15, global = 1.29057e-23, cumulative = 1.19936e-21
Pressure gradient source: uncorrected Ubar = 0.195, pressure gradient = -162501
GAMG:  Solving for p, Initial residual = 0.273678, Final residual = 0.000267266, No Iterations 7
time step continuity errors : sum local = 5.77492e-15, global = 2.89528e-24, cumulative = 1.20226e-21
Pressure gradient source: uncorrected Ubar = 0.195, pressure gradient = -162501
GAMG:  Solving for p, Initial residual = 0.273678, Final residual = 0.000262129, No Iterations 7
time step continuity errors : sum local = 5.66767e-15, global = 2.07532e-23, cumulative = 1.22301e-21
Pressure gradient source: uncorrected Ubar = 0.195, pressure gradient = -162501
smoothSolver:  Solving for k, Initial residual = 0.0201153, Final residual = 2.89071e-08, No Iterations 1
PIMPLE: iteration 10
smoothSolver:  Solving for Ux, Initial residual = 0.515827, Final residual = 6.65389e-10, No Iterations 2
smoothSolver:  Solving for Uy, Initial residual = 0.390663, Final residual = 7.66457e-07, No Iterations 1
smoothSolver:  Solving for Uz, Initial residual = 0.383992, Final residual = 6.44775e-07, No Iterations 1
Pressure gradient source: uncorrected Ubar = 0.195, pressure gradient = -162501
GAMG:  Solving for p, Initial residual = 0.658242, Final residual = 0.000282575, No Iterations 6
time step continuity errors : sum local = 2.68716e-14, global = 4.30628e-23, cumulative = 1.26608e-21
Pressure gradient source: uncorrected Ubar = 0.195, pressure gradient = -162501
GAMG:  Solving for p, Initial residual = 0.000340014, Final residual = 2.63035e-07, No Iterations 34
time step continuity errors : sum local = 2.02714e-17, global = 5.35529e-23, cumulative = 1.31963e-21
Pressure gradient source: uncorrected Ubar = 0.195, pressure gradient = -162501
GAMG:  Solving for p, Initial residual = 2.6372e-07, Final residual = 2.6372e-07, No Iterations 0
time step continuity errors : sum local = 2.03246e-17, global = 4.79105e-23, cumulative = 1.36754e-21
Pressure gradient source: uncorrected Ubar = 0.195, pressure gradient = -162501
smoothSolver:  Solving for k, Initial residual = 0.472374, Final residual = 3.05503e-07, No Iterations 1
PIMPLE: not converged within 10 iterations
ExecutionTime = 251.8 s  ClockTime = 283 s

fieldAverage fieldAverage1 write:
    Calculating averages

Courant Number mean: 0.000217323 max: 0.000217324
deltaT = 2.48814e-06
Time = 8.92952e-06

PIMPLE: iteration 1
smoothSolver:  Solving for Ux, Initial residual = 0.999999, Final residual = 2.01329e-07, No Iterations 1
smoothSolver:  Solving for Uy, Initial residual = 0.0947653, Final residual = 6.65147e-08, No Iterations 1
smoothSolver:  Solving for Uz, Initial residual = 0.0935334, Final residual = 5.30881e-08, No Iterations 1
Pressure gradient source: uncorrected Ubar = 0.114135, pressure gradient = 162501
GAMG:  Solving for p, Initial residual = 0.944706, Final residual = 0.000714115, No Iterations 7
time step continuity errors : sum local = 6.28902e-14, global = 1.20199e-23, cumulative = 1.37956e-21
Pressure gradient source: uncorrected Ubar = 0.114135, pressure gradient = 162501
GAMG:  Solving for p, Initial residual = 0.595404, Final residual = 0.00052961, No Iterations 6
time step continuity errors : sum local = 5.10979e-14, global = 2.04606e-23, cumulative = 1.40002e-21
Pressure gradient source: uncorrected Ubar = 0.114135, pressure gradient = 162501
GAMG:  Solving for p, Initial residual = 0.59541, Final residual = 0.000467886, No Iterations 7
time step continuity errors : sum local = 4.57503e-14, global = 2.18567e-23, cumulative = 1.42188e-21
Pressure gradient source: uncorrected Ubar = 0.114135, pressure gradient = 162501
smoothSolver:  Solving for k, Initial residual = 0.931296, Final residual = 6.24382e-16, No Iterations 1
bounding k, min: -7.23142e-06 max: 0.00013999 average: 7.32383e-05
PIMPLE: iteration 2
smoothSolver:  Solving for Ux, Initial residual = 0.141068, Final residual = 1.51354e-07, No Iterations 1
smoothSolver:  Solving for Uy, Initial residual = 0.123293, Final residual = 1.65348e-08, No Iterations 1
smoothSolver:  Solving for Uz, Initial residual = 0.120631, Final residual = 1.34543e-08, No Iterations 1
Pressure gradient source: uncorrected Ubar = 0.195, pressure gradient = 162501
GAMG:  Solving for p, Initial residual = 0.58395, Final residual = 0.000539573, No Iterations 6
time step continuity errors : sum local = 4.16193e-14, global = 2.68508e-23, cumulative = 1.44873e-21
Pressure gradient source: uncorrected Ubar = 0.195, pressure gradient = 162501
GAMG:  Solving for p, Initial residual = 0.369844, Final residual = 0.00036421, No Iterations 6
time step continuity errors : sum local = 3.10592e-14, global = 2.50164e-23, cumulative = 1.47374e-21
Pressure gradient source: uncorrected Ubar = 0.195, pressure gradient = 162501
GAMG:  Solving for p, Initial residual = 0.369843, Final residual = 0.000360004, No Iterations 6
time step continuity errors : sum local = 3.06988e-14, global = 1.84587e-23, cumulative = 1.4922e-21
Pressure gradient source: uncorrected Ubar = 0.195, pressure gradient = 162501
smoothSolver:  Solving for k, Initial residual = 0.299368, Final residual = 1.3088e-06, No Iterations 1
bounding k, min: -3.39901e-05 max: 0.00014 average: 8.60568e-05
PIMPLE: iteration 3
smoothSolver:  Solving for Ux, Initial residual = 0.245994, Final residual = 3.48551e-07, No Iterations 1
smoothSolver:  Solving for Uy, Initial residual = 0.201451, Final residual = 3.49054e-08, No Iterations 1
smoothSolver:  Solving for Uz, Initial residual = 0.192341, Final residual = 2.5384e-08, No Iterations 1
Pressure gradient source: uncorrected Ubar = 0.195, pressure gradient = 162501
GAMG:  Solving for p, Initial residual = 0.359422, Final residual = 0.000312559, No Iterations 5
time step continuity errors : sum local = 2.34733e-14, global = 1.52793e-23, cumulative = 1.50748e-21
Pressure gradient source: uncorrected Ubar = 0.195, pressure gradient = 162501
GAMG:  Solving for p, Initial residual = 0.239877, Final residual = 0.000235752, No Iterations 6
time step continuity errors : sum local = 1.84257e-14, global = 2.20269e-23, cumulative = 1.52951e-21
Pressure gradient source: uncorrected Ubar = 0.195, pressure gradient = 162501
GAMG:  Solving for p, Initial residual = 0.239879, Final residual = 0.000151344, No Iterations 4
time step continuity errors : sum local = 1.18787e-14, global = 3.22547e-23, cumulative = 1.56176e-21
Pressure gradient source: uncorrected Ubar = 0.195, pressure gradient = 162501
smoothSolver:  Solving for k, Initial residual = 0.0818576, Final residual = 8.29856e-08, No Iterations 1
bounding k, min: -3.36124e-05 max: 0.00014 average: 8.66992e-05
PIMPLE: iteration 4
smoothSolver:  Solving for Ux, Initial residual = 0.311215, Final residual = 3.86359e-07, No Iterations 1
smoothSolver:  Solving for Uy, Initial residual = 0.256867, Final residual = 5.51091e-08, No Iterations 1
smoothSolver:  Solving for Uz, Initial residual = 0.250144, Final residual = 4.3529e-08, No Iterations 1
Pressure gradient source: uncorrected Ubar = 0.195, pressure gradient = 162501
GAMG:  Solving for p, Initial residual = 0.293666, Final residual = 0.000288717, No Iterations 7
time step continuity errors : sum local = 1.9962e-14, global = 3.58672e-23, cumulative = 1.59763e-21
Pressure gradient source: uncorrected Ubar = 0.195, pressure gradient = 162501
GAMG:  Solving for p, Initial residual = 0.206896, Final residual = 0.000167827, No Iterations 8
time step continuity errors : sum local = 1.15739e-14, global = 2.48933e-23, cumulative = 1.62252e-21
Pressure gradient source: uncorrected Ubar = 0.195, pressure gradient = 162501
GAMG:  Solving for p, Initial residual = 0.206897, Final residual = 0.000130805, No Iterations 5
time step continuity errors : sum local = 9.18347e-15, global = 1.69679e-23, cumulative = 1.63949e-21
Pressure gradient source: uncorrected Ubar = 0.195, pressure gradient = 162501
smoothSolver:  Solving for k, Initial residual = 0.0501985, Final residual = 4.16217e-08, No Iterations 1
bounding k, min: -3.37744e-05 max: 0.00014 average: 8.79616e-05
PIMPLE: iteration 5
smoothSolver:  Solving for Ux, Initial residual = 0.246042, Final residual = 3.09972e-07, No Iterations 1
smoothSolver:  Solving for Uy, Initial residual = 0.221778, Final residual = 6.02729e-08, No Iterations 1
smoothSolver:  Solving for Uz, Initial residual = 0.223031, Final residual = 5.0865e-08, No Iterations 1
Pressure gradient source: uncorrected Ubar = 0.195, pressure gradient = 162501
GAMG:  Solving for p, Initial residual = 0.343111, Final residual = 0.000310225, No Iterations 6
time step continuity errors : sum local = 1.91159e-14, global = 1.92371e-23, cumulative = 1.65873e-21
Pressure gradient source: uncorrected Ubar = 0.195, pressure gradient = 162501
GAMG:  Solving for p, Initial residual = 0.249862, Final residual = 0.000238551, No Iterations 6
time step continuity errors : sum local = 1.41269e-14, global = 2.12503e-23, cumulative = 1.67998e-21
Pressure gradient source: uncorrected Ubar = 0.195, pressure gradient = 162501
GAMG:  Solving for p, Initial residual = 0.249861, Final residual = 0.000234633, No Iterations 6
time step continuity errors : sum local = 1.3895e-14, global = -2.09727e-24, cumulative = 1.67788e-21
Pressure gradient source: uncorrected Ubar = 0.195, pressure gradient = 162501
smoothSolver:  Solving for k, Initial residual = 0.0396791, Final residual = 1.02368e-07, No Iterations 1
bounding k, min: -3.38724e-05 max: 0.00014 average: 8.86036e-05
PIMPLE: iteration 6
smoothSolver:  Solving for Ux, Initial residual = 0.136252, Final residual = 2.51645e-07, No Iterations 1
smoothSolver:  Solving for Uy, Initial residual = 0.141642, Final residual = 4.29967e-08, No Iterations 1
smoothSolver:  Solving for Uz, Initial residual = 0.148665, Final residual = 3.68731e-08, No Iterations 1
Pressure gradient source: uncorrected Ubar = 0.195, pressure gradient = 162501
GAMG:  Solving for p, Initial residual = 0.379672, Final residual = 0.000278826, No Iterations 5
time step continuity errors : sum local = 1.50558e-14, global = 2.26174e-23, cumulative = 1.7005e-21
Pressure gradient source: uncorrected Ubar = 0.195, pressure gradient = 162501
GAMG:  Solving for p, Initial residual = 0.28316, Final residual = 0.000217074, No Iterations 5
time step continuity errors : sum local = 1.09989e-14, global = 3.13878e-23, cumulative = 1.73189e-21
Pressure gradient source: uncorrected Ubar = 0.195, pressure gradient = 162501
GAMG:  Solving for p, Initial residual = 0.28316, Final residual = 0.000214037, No Iterations 5
time step continuity errors : sum local = 1.0846e-14, global = 1.79861e-23, cumulative = 1.74987e-21
Pressure gradient source: uncorrected Ubar = 0.195, pressure gradient = 162501
smoothSolver:  Solving for k, Initial residual = 0.0310454, Final residual = 1.03477e-07, No Iterations 1
bounding k, min: -3.38805e-05 max: 0.00014 average: 8.93103e-05
PIMPLE: iteration 7
smoothSolver:  Solving for Ux, Initial residual = 0.0884282, Final residual = 1.96126e-07, No Iterations 1
smoothSolver:  Solving for Uy, Initial residual = 0.10055, Final residual = 3.38213e-08, No Iterations 1
smoothSolver:  Solving for Uz, Initial residual = 0.103942, Final residual = 2.97846e-08, No Iterations 1
Pressure gradient source: uncorrected Ubar = 0.195, pressure gradient = 162501
GAMG:  Solving for p, Initial residual = 0.357306, Final residual = 0.0002918, No Iterations 5
time step continuity errors : sum local = 1.44077e-14, global = 2.8453e-23, cumulative = 1.77833e-21
Pressure gradient source: uncorrected Ubar = 0.195, pressure gradient = 162501
GAMG:  Solving for p, Initial residual = 0.266637, Final residual = 0.000225792, No Iterations 5
time step continuity errors : sum local = 1.04266e-14, global = 1.39753e-23, cumulative = 1.7923e-21
Pressure gradient source: uncorrected Ubar = 0.195, pressure gradient = 162501
GAMG:  Solving for p, Initial residual = 0.26664, Final residual = 0.000247811, No Iterations 8
time step continuity errors : sum local = 1.12587e-14, global = 2.20306e-23, cumulative = 1.81433e-21
Pressure gradient source: uncorrected Ubar = 0.195, pressure gradient = 162501
smoothSolver:  Solving for k, Initial residual = 0.0224537, Final residual = 5.39919e-08, No Iterations 1
bounding k, min: -3.38389e-05 max: 0.00014 average: 8.98625e-05
PIMPLE: iteration 8
smoothSolver:  Solving for Ux, Initial residual = 0.119269, Final residual = 1.93609e-07, No Iterations 1
smoothSolver:  Solving for Uy, Initial residual = 0.112138, Final residual = 3.28082e-08, No Iterations 1
smoothSolver:  Solving for Uz, Initial residual = 0.107138, Final residual = 2.71971e-08, No Iterations 1
Pressure gradient source: uncorrected Ubar = 0.195, pressure gradient = 162501
GAMG:  Solving for p, Initial residual = 0.311427, Final residual = 0.000247869, No Iterations 4
time step continuity errors : sum local = 1.09799e-14, global = 1.56043e-23, cumulative = 1.82994e-21
Pressure gradient source: uncorrected Ubar = 0.195, pressure gradient = 162501
GAMG:  Solving for p, Initial residual = 0.228557, Final residual = 0.000203344, No Iterations 4
time step continuity errors : sum local = 8.56754e-15, global = -5.52749e-25, cumulative = 1.82938e-21
Pressure gradient source: uncorrected Ubar = 0.195, pressure gradient = 162501
GAMG:  Solving for p, Initial residual = 0.228556, Final residual = 0.000187562, No Iterations 4
time step continuity errors : sum local = 7.91752e-15, global = 3.89399e-23, cumulative = 1.86832e-21
Pressure gradient source: uncorrected Ubar = 0.195, pressure gradient = 162501
smoothSolver:  Solving for k, Initial residual = 0.0181338, Final residual = 3.32883e-08, No Iterations 1
bounding k, min: -3.37353e-05 max: 0.00014 average: 9.02294e-05
PIMPLE: iteration 9
smoothSolver:  Solving for Ux, Initial residual = 0.149436, Final residual = 2.64952e-07, No Iterations 1
smoothSolver:  Solving for Uy, Initial residual = 0.110836, Final residual = 3.38266e-08, No Iterations 1
smoothSolver:  Solving for Uz, Initial residual = 0.105354, Final residual = 2.22371e-08, No Iterations 1
Pressure gradient source: uncorrected Ubar = 0.195, pressure gradient = 162501
GAMG:  Solving for p, Initial residual = 0.278734, Final residual = 0.00024156, No Iterations 6
time step continuity errors : sum local = 1.04483e-14, global = 2.05775e-23, cumulative = 1.8889e-21
Pressure gradient source: uncorrected Ubar = 0.195, pressure gradient = 162501
GAMG:  Solving for p, Initial residual = 0.199602, Final residual = 0.000187811, No Iterations 6
time step continuity errors : sum local = 7.94185e-15, global = 2.7799e-23, cumulative = 1.9167e-21
Pressure gradient source: uncorrected Ubar = 0.195, pressure gradient = 162501
GAMG:  Solving for p, Initial residual = 0.199602, Final residual = 0.000184493, No Iterations 6
time step continuity errors : sum local = 7.80121e-15, global = 1.88745e-23, cumulative = 1.93557e-21
Pressure gradient source: uncorrected Ubar = 0.195, pressure gradient = 162501
smoothSolver:  Solving for k, Initial residual = 0.0172477, Final residual = 4.67927e-08, No Iterations 1
bounding k, min: -3.34782e-05 max: 0.00014 average: 9.04022e-05
PIMPLE: iteration 10
smoothSolver:  Solving for Ux, Initial residual = 0.505048, Final residual = 6.68109e-10, No Iterations 2
smoothSolver:  Solving for Uy, Initial residual = 0.388245, Final residual = 6.91859e-07, No Iterations 1
smoothSolver:  Solving for Uz, Initial residual = 0.374, Final residual = 4.14361e-07, No Iterations 1
Pressure gradient source: uncorrected Ubar = 0.195, pressure gradient = 162501
GAMG:  Solving for p, Initial residual = 0.447379, Final residual = 0.000235247, No Iterations 5
time step continuity errors : sum local = 4.31615e-14, global = 3.69755e-23, cumulative = 1.97255e-21
Pressure gradient source: uncorrected Ubar = 0.195, pressure gradient = 162501
GAMG:  Solving for p, Initial residual = 0.000265219, Final residual = 2.53131e-07, No Iterations 47
time step continuity errors : sum local = 4.12343e-17, global = 6.04188e-23, cumulative = 2.03297e-21
Pressure gradient source: uncorrected Ubar = 0.195, pressure gradient = 162501
GAMG:  Solving for p, Initial residual = 2.53139e-07, Final residual = 2.53139e-07, No Iterations 0
time step continuity errors : sum local = 4.12353e-17, global = 5.04519e-23, cumulative = 2.08342e-21
Pressure gradient source: uncorrected Ubar = 0.195, pressure gradient = 162501
smoothSolver:  Solving for k, Initial residual = 0.267458, Final residual = 6.74578e-08, No Iterations 1
bounding k, min: -3.26619e-05 max: 0.00014 average: 8.27807e-05
PIMPLE: not converged within 10 iterations
ExecutionTime = 304.32 s  ClockTime = 343 s

fieldAverage fieldAverage1 write:
    Calculating averages

Courant Number mean: 0.000215089 max: 0.00021509
deltaT = 2.9857e-06
Time = 1.19152e-05

PIMPLE: iteration 1
smoothSolver:  Solving for Ux, Initial residual = 0.999999, Final residual = 1.99502e-07, No Iterations 1
smoothSolver:  Solving for Uy, Initial residual = 0.248746, Final residual = 1.50832e-07, No Iterations 1
smoothSolver:  Solving for Uz, Initial residual = 0.25862, Final residual = 1.27448e-07, No Iterations 1
Pressure gradient source: uncorrected Ubar = 0.292036, pressure gradient = -162501
GAMG:  Solving for p, Initial residual = 0.791453, Final residual = 0.000646451, No Iterations 9
time step continuity errors : sum local = 7.88092e-14, global = 3.73857e-23, cumulative = 2.12081e-21
Pressure gradient source: uncorrected Ubar = 0.292036, pressure gradient = -162501
GAMG:  Solving for p, Initial residual = 0.500288, Final residual = 0.000377332, No Iterations 9
time step continuity errors : sum local = 5.10194e-14, global = 4.51122e-23, cumulative = 2.16592e-21
Pressure gradient source: uncorrected Ubar = 0.292036, pressure gradient = -162501
GAMG:  Solving for p, Initial residual = 0.500288, Final residual = 0.000386952, No Iterations 9
time step continuity errors : sum local = 5.2295e-14, global = 2.77367e-23, cumulative = 2.19366e-21
Pressure gradient source: uncorrected Ubar = 0.292036, pressure gradient = -162501
smoothSolver:  Solving for k, Initial residual = 0.858335, Final residual = 1.28182e-15, No Iterations 1
bounding k, min: -1.42353e-12 max: 0.00013998 average: 5.47859e-05
PIMPLE: iteration 2
smoothSolver:  Solving for Ux, Initial residual = 0.141284, Final residual = 3.30147e-07, No Iterations 1
smoothSolver:  Solving for Uy, Initial residual = 0.227574, Final residual = 1.15028e-07, No Iterations 1
smoothSolver:  Solving for Uz, Initial residual = 0.23868, Final residual = 1.00896e-07, No Iterations 1
Pressure gradient source: uncorrected Ubar = 0.195, pressure gradient = -162501
GAMG:  Solving for p, Initial residual = 0.638341, Final residual = 0.000279271, No Iterations 8
time step continuity errors : sum local = 2.72565e-14, global = 2.35732e-23, cumulative = 2.21723e-21
Pressure gradient source: uncorrected Ubar = 0.195, pressure gradient = -162501
GAMG:  Solving for p, Initial residual = 0.448422, Final residual = 0.000444296, No Iterations 7
time step continuity errors : sum local = 4.31825e-14, global = 1.98618e-23, cumulative = 2.23709e-21
Pressure gradient source: uncorrected Ubar = 0.195, pressure gradient = -162501
GAMG:  Solving for p, Initial residual = 0.448422, Final residual = 0.000203244, No Iterations 8
time step continuity errors : sum local = 1.97692e-14, global = 2.56375e-23, cumulative = 2.26273e-21
Pressure gradient source: uncorrected Ubar = 0.195, pressure gradient = -162501
smoothSolver:  Solving for k, Initial residual = 0.226792, Final residual = 1.40936e-06, No Iterations 1
bounding k, min: -4.74055e-05 max: 0.00014 average: 6.28209e-05
PIMPLE: iteration 3
smoothSolver:  Solving for Ux, Initial residual = 0.157915, Final residual = 2.47366e-07, No Iterations 1
smoothSolver:  Solving for Uy, Initial residual = 0.163514, Final residual = 5.86916e-08, No Iterations 1
smoothSolver:  Solving for Uz, Initial residual = 0.159326, Final residual = 4.19482e-08, No Iterations 1
Pressure gradient source: uncorrected Ubar = 0.195, pressure gradient = -162501
GAMG:  Solving for p, Initial residual = 0.527834, Final residual = 0.000304515, No Iterations 7
time step continuity errors : sum local = 2.91109e-14, global = 1.80456e-23, cumulative = 2.28077e-21
Pressure gradient source: uncorrected Ubar = 0.195, pressure gradient = -162501
GAMG:  Solving for p, Initial residual = 0.367884, Final residual = 0.000336527, No Iterations 6
time step continuity errors : sum local = 3.14777e-14, global = 1.87566e-23, cumulative = 2.29953e-21
Pressure gradient source: uncorrected Ubar = 0.195, pressure gradient = -162501
GAMG:  Solving for p, Initial residual = 0.367888, Final residual = 0.000252055, No Iterations 7
time step continuity errors : sum local = 2.41396e-14, global = 2.0468e-23, cumulative = 2.32e-21
Pressure gradient source: uncorrected Ubar = 0.195, pressure gradient = -162501
smoothSolver:  Solving for k, Initial residual = 0.0500339, Final residual = 2.89279e-08, No Iterations 1
bounding k, min: -4.69355e-05 max: 0.00014 average: 6.23512e-05
PIMPLE: iteration 4
smoothSolver:  Solving for Ux, Initial residual = 0.195026, Final residual = 2.64269e-07, No Iterations 1
smoothSolver:  Solving for Uy, Initial residual = 0.123988, Final residual = 5.6515e-08, No Iterations 1
smoothSolver:  Solving for Uz, Initial residual = 0.112501, Final residual = 3.36283e-08, No Iterations 1
Pressure gradient source: uncorrected Ubar = 0.195, pressure gradient = -162501
GAMG:  Solving for p, Initial residual = 0.434531, Final residual = 0.000315106, No Iterations 6
time step continuity errors : sum local = 2.81233e-14, global = 1.95197e-23, cumulative = 2.33952e-21
Pressure gradient source: uncorrected Ubar = 0.195, pressure gradient = -162501
GAMG:  Solving for p, Initial residual = 0.302734, Final residual = 0.00018842, No Iterations 5
time step continuity errors : sum local = 1.69183e-14, global = 2.02247e-23, cumulative = 2.35974e-21
Pressure gradient source: uncorrected Ubar = 0.195, pressure gradient = -162501
GAMG:  Solving for p, Initial residual = 0.302733, Final residual = 0.000268209, No Iterations 7
time step continuity errors : sum local = 2.3445e-14, global = 3.02533e-23, cumulative = 2.39e-21
Pressure gradient source: uncorrected Ubar = 0.195, pressure gradient = -162501
smoothSolver:  Solving for k, Initial residual = 0.0394306, Final residual = 2.84533e-08, No Iterations 1
bounding k, min: -4.70739e-05 max: 0.00014 average: 6.32001e-05
PIMPLE: iteration 5
smoothSolver:  Solving for Ux, Initial residual = 0.212649, Final residual = 2.57771e-07, No Iterations 1
smoothSolver:  Solving for Uy, Initial residual = 0.119061, Final residual = 5.94547e-08, No Iterations 1
smoothSolver:  Solving for Uz, Initial residual = 0.109484, Final residual = 3.6499e-08, No Iterations 1
Pressure gradient source: uncorrected Ubar = 0.195, pressure gradient = -162501
GAMG:  Solving for p, Initial residual = 0.35429, Final residual = 0.000200084, No Iterations 5
time step continuity errors : sum local = 1.59866e-14, global = 3.02428e-23, cumulative = 2.42024e-21
Pressure gradient source: uncorrected Ubar = 0.195, pressure gradient = -162501
GAMG:  Solving for p, Initial residual = 0.248969, Final residual = 0.000147835, No Iterations 5
time step continuity errors : sum local = 1.17371e-14, global = 1.76493e-23, cumulative = 2.43789e-21
Pressure gradient source: uncorrected Ubar = 0.195, pressure gradient = -162501
GAMG:  Solving for p, Initial residual = 0.248969, Final residual = 0.00014573, No Iterations 5
time step continuity errors : sum local = 1.15814e-14, global = 1.50966e-23, cumulative = 2.45298e-21
Pressure gradient source: uncorrected Ubar = 0.195, pressure gradient = -162501
smoothSolver:  Solving for k, Initial residual = 0.0411814, Final residual = 6.95762e-08, No Iterations 1
bounding k, min: -4.73306e-05 max: 0.00014 average: 6.41345e-05
PIMPLE: iteration 6
[...]
smoothSolver:  Solving for Uy, Initial residual = 0.128496, Final residual = 1.36338e-05, No Iterations 1
smoothSolver:  Solving for Uz, Initial residual = 0.151404, Final residual = 8.27889e-07, No Iterations 1
Pressure gradient source: uncorrected Ubar = 0.195, pressure gradient = -162501
GAMG:  Solving for p, Initial residual = 0.648953, Final residual = 0.000461141, No Iterations 4
time step continuity errors : sum local = 1.10208e-08, global = -3.26232e-20, cumulative = -1.01265e-17
Pressure gradient source: uncorrected Ubar = 0.195, pressure gradient = -162501
GAMG:  Solving for p, Initial residual = 0.520153, Final residual = 0.000397318, No Iterations 4
time step continuity errors : sum local = 8.29007e-09, global = -3.1691e-20, cumulative = -1.01582e-17
Pressure gradient source: uncorrected Ubar = 0.195, pressure gradient = -162501
GAMG:  Solving for p, Initial residual = 0.520146, Final residual = 0.000392938, No Iterations 4
time step continuity errors : sum local = 8.19973e-09, global = -3.20082e-20, cumulative = -1.01902e-17
Pressure gradient source: uncorrected Ubar = 0.195, pressure gradient = -162501
smoothSolver:  Solving for k, Initial residual = 0.00156554, Final residual = 1.03549e-07, No Iterations 1
bounding k, min: -0.000432113 max: 0.000351932 average: 1.71913e-06
PIMPLE: iteration 10
smoothSolver:  Solving for Ux, Initial residual = 0.629, Final residual = 2.3296e-08, No Iterations 3
smoothSolver:  Solving for Uy, Initial residual = 0.671932, Final residual = 1.96401e-08, No Iterations 3
smoothSolver:  Solving for Uz, Initial residual = 0.692115, Final residual = 9.04515e-08, No Iterations 2
Pressure gradient source: uncorrected Ubar = 0.195, pressure gradient = -162501
GAMG:  Solving for p, Initial residual = 0.995123, Final residual = 0.000296973, No Iterations 4
time step continuity errors : sum local = 1.49755e-08, global = -1.76431e-19, cumulative = -1.03667e-17
Pressure gradient source: uncorrected Ubar = 0.195, pressure gradient = -162501
GAMG:  Solving for p, Initial residual = 0.796349, Final residual = 0.000659638, No Iterations 15
time step continuity errors : sum local = 1.77391e-10, global = -1.77932e-19, cumulative = -1.05446e-17
Pressure gradient source: uncorrected Ubar = 0.195, pressure gradient = -162501
GAMG:  Solving for p, Initial residual = 0.0171091, Final residual = 8.76465e-07, No Iterations 16
time step continuity errors : sum local = 7.60312e-14, global = -1.75292e-19, cumulative = -1.07199e-17
Pressure gradient source: uncorrected Ubar = 0.195, pressure gradient = -162501
smoothSolver:  Solving for k, Initial residual = 0.0113484, Final residual = 3.53295e-07, No Iterations 1
bounding k, min: -0.000406438 max: 0.000139954 average: 1.71125e-06
PIMPLE: not converged within 10 iterations
ExecutionTime = 1834.58 s  ClockTime = 2048 s

fieldAverage fieldAverage1 write:
    Calculating averages

Courant Number mean: 0.0298353 max: 0.0298414
deltaT = 0.000581306
Time = 0.00350314

PIMPLE: iteration 1
smoothSolver:  Solving for Ux, Initial residual = 1, Final residual = 3.01921e-05, No Iterations 1
smoothSolver:  Solving for Uy, Initial residual = 0.027502, Final residual = 2.93518e-06, No Iterations 1
smoothSolver:  Solving for Uz, Initial residual = 0.0482079, Final residual = 4.28178e-07, No Iterations 1
Pressure gradient source: uncorrected Ubar = -18.6937, pressure gradient = 162519
GAMG:  Solving for p, Initial residual = 0.999939, Final residual = 0.00062529, No Iterations 4
time step continuity errors : sum local = 1.32969e-07, global = -1.42896e-19, cumulative = -1.08628e-17
Pressure gradient source: uncorrected Ubar = -18.6927, pressure gradient = 162501
GAMG:  Solving for p, Initial residual = 0.538652, Final residual = 0.000346417, No Iterations 4
time step continuity errors : sum local = 9.57656e-08, global = -3.70024e-20, cumulative = -1.08998e-17
Pressure gradient source: uncorrected Ubar = -18.6927, pressure gradient = 162501
GAMG:  Solving for p, Initial residual = 0.538453, Final residual = 0.000344357, No Iterations 4
time step continuity errors : sum local = 9.52034e-08, global = -2.13827e-19, cumulative = -1.11136e-17
Pressure gradient source: uncorrected Ubar = -18.6927, pressure gradient = 162501
smoothSolver:  Solving for k, Initial residual = 0.648492, Final residual = 0.00372213, No Iterations 1
bounding k, min: -0.0214079 max: 0.185466 average: 0.000483215
PIMPLE: iteration 2
smoothSolver:  Solving for Ux, Initial residual = 0.162053, Final residual = 0.00807116, No Iterations 1
smoothSolver:  Solving for Uy, Initial residual = 0.19625, Final residual = 0.00234339, No Iterations 1
smoothSolver:  Solving for Uz, Initial residual = 0.196235, Final residual = 0.00199243, No Iterations 1
Pressure gradient source: uncorrected Ubar = 0.195002, pressure gradient = 162501
GAMG:  Solving for p, Initial residual = 0.758476, Final residual = 0.000249087, No Iterations 5
time step continuity errors : sum local = 3.52948e-08, global = -2.05511e-20, cumulative = -1.11342e-17
Pressure gradient source: uncorrected Ubar = 0.195013, pressure gradient = 162501
GAMG:  Solving for p, Initial residual = 0.493849, Final residual = 0.000244331, No Iterations 5
time step continuity errors : sum local = 3.72909e-08, global = -1.65614e-20, cumulative = -1.11507e-17
Pressure gradient source: uncorrected Ubar = 0.195013, pressure gradient = 162501
GAMG:  Solving for p, Initial residual = 0.494295, Final residual = 0.000247786, No Iterations 5
time step continuity errors : sum local = 3.7942e-08, global = -1.99987e-20, cumulative = -1.11707e-17
Pressure gradient source: uncorrected Ubar = 0.195013, pressure gradient = 162501
smoothSolver:  Solving for k, Initial residual = 0.337946, Final residual = 0.000114331, No Iterations 1
bounding k, min: -0.00124716 max: 0.000544764 average: 1.56414e-06
PIMPLE: iteration 3
smoothSolver:  Solving for Ux, Initial residual = 0.199109, Final residual = 0.000219956, No Iterations 1
smoothSolver:  Solving for Uy, Initial residual = 0.11425, Final residual = 1.86628e-05, No Iterations 1
smoothSolver:  Solving for Uz, Initial residual = 0.0782198, Final residual = 5.50747e-07, No Iterations 1
Pressure gradient source: uncorrected Ubar = 0.194981, pressure gradient = 162501
GAMG:  Solving for p, Initial residual = 0.318092, Final residual = 0.000205715, No Iterations 4
time step continuity errors : sum local = 3.34362e-08, global = -3.35168e-20, cumulative = -1.12042e-17
Pressure gradient source: uncorrected Ubar = 0.194981, pressure gradient = 162501
GAMG:  Solving for p, Initial residual = 0.234482, Final residual = 0.000159489, No Iterations 4
time step continuity errors : sum local = 2.46138e-08, global = -3.36893e-20, cumulative = -1.12379e-17
Pressure gradient source: uncorrected Ubar = 0.194981, pressure gradient = 162501
GAMG:  Solving for p, Initial residual = 0.234475, Final residual = 0.000157558, No Iterations 4
time step continuity errors : sum local = 2.43174e-08, global = -3.37311e-20, cumulative = -1.12717e-17
Pressure gradient source: uncorrected Ubar = 0.194981, pressure gradient = 162501
smoothSolver:  Solving for k, Initial residual = 0.0155801, Final residual = 2.39878e-05, No Iterations 1
bounding k, min: -0.000417717 max: 0.00054467 average: 1.71459e-06
PIMPLE: iteration 4
smoothSolver:  Solving for Ux, Initial residual = 0.195413, Final residual = 0.00021494, No Iterations 1
smoothSolver:  Solving for Uy, Initial residual = 0.109961, Final residual = 1.64818e-05, No Iterations 1
smoothSolver:  Solving for Uz, Initial residual = 0.0953662, Final residual = 9.10903e-07, No Iterations 1
Pressure gradient source: uncorrected Ubar = 0.195, pressure gradient = 162501
GAMG:  Solving for p, Initial residual = 0.47175, Final residual = 0.000238932, No Iterations 4
time step continuity errors : sum local = 3.1442e-08, global = -3.38699e-20, cumulative = -1.13055e-17
Pressure gradient source: uncorrected Ubar = 0.195, pressure gradient = 162501
GAMG:  Solving for p, Initial residual = 0.364301, Final residual = 0.000199379, No Iterations 4
time step continuity errors : sum local = 2.35656e-08, global = -3.3889e-20, cumulative = -1.13394e-17
Pressure gradient source: uncorrected Ubar = 0.195, pressure gradient = 162501
GAMG:  Solving for p, Initial residual = 0.364318, Final residual = 0.000188927, No Iterations 4
time step continuity errors : sum local = 2.25313e-08, global = -3.35986e-20, cumulative = -1.1373e-17
Pressure gradient source: uncorrected Ubar = 0.195, pressure gradient = 162501
smoothSolver:  Solving for k, Initial residual = 0.00152074, Final residual = 3.95746e-07, No Iterations 1
bounding k, min: -0.000416363 max: 0.00054467 average: 1.71596e-06
PIMPLE: iteration 5
smoothSolver:  Solving for Ux, Initial residual = 0.19897, Final residual = 0.000200212, No Iterations 1
smoothSolver:  Solving for Uy, Initial residual = 0.166193, Final residual = 1.2299e-05, No Iterations 1
smoothSolver:  Solving for Uz, Initial residual = 0.236651, Final residual = 2.10257e-06, No Iterations 1
Pressure gradient source: uncorrected Ubar = 0.195, pressure gradient = 162501
GAMG:  Solving for p, Initial residual = 0.616801, Final residual = 0.000491496, No Iterations 4
time step continuity errors : sum local = 4.89411e-08, global = -3.40541e-20, cumulative = -1.14071e-17
Pressure gradient source: uncorrected Ubar = 0.195, pressure gradient = 162501
GAMG:  Solving for p, Initial residual = 0.488536, Final residual = 0.000420179, No Iterations 4
time step continuity errors : sum local = 3.69672e-08, global = -3.41242e-20, cumulative = -1.14412e-17
Pressure gradient source: uncorrected Ubar = 0.195, pressure gradient = 162501
GAMG:  Solving for p, Initial residual = 0.488546, Final residual = 0.000413605, No Iterations 4
time step continuity errors : sum local = 3.6391e-08, global = -3.29126e-20, cumulative = -1.14741e-17
Pressure gradient source: uncorrected Ubar = 0.195, pressure gradient = 162501
smoothSolver:  Solving for k, Initial residual = 0.00254595, Final residual = 2.38008e-07, No Iterations 1
bounding k, min: -0.00041418 max: 0.000544675 average: 1.71659e-06
PIMPLE: iteration 6
smoothSolver:  Solving for Ux, Initial residual = 0.185136, Final residual = 0.000163754, No Iterations 1
smoothSolver:  Solving for Uy, Initial residual = 0.183773, Final residual = 6.25135e-06, No Iterations 1
smoothSolver:  Solving for Uz, Initial residual = 0.331424, Final residual = 2.78127e-06, No Iterations 1
Pressure gradient source: uncorrected Ubar = 0.195, pressure gradient = 162501
GAMG:  Solving for p, Initial residual = 0.669604, Final residual = 0.000587912, No Iterations 4
time step continuity errors : sum local = 4.7562e-08, global = -3.4294e-20, cumulative = -1.15084e-17
Pressure gradient source: uncorrected Ubar = 0.195, pressure gradient = 162501
GAMG:  Solving for p, Initial residual = 0.534335, Final residual = 0.000509154, No Iterations 4
time step continuity errors : sum local = 3.61234e-08, global = -3.43966e-20, cumulative = -1.15428e-17
Pressure gradient source: uncorrected Ubar = 0.195, pressure gradient = 162501
GAMG:  Solving for p, Initial residual = 0.534346, Final residual = 0.000500824, No Iterations 4
time step continuity errors : sum local = 3.55344e-08, global = -3.48747e-20, cumulative = -1.15777e-17
Pressure gradient source: uncorrected Ubar = 0.195, pressure gradient = 162501
smoothSolver:  Solving for k, Initial residual = 0.00126351, Final residual = 1.91795e-07, No Iterations 1
bounding k, min: -0.000412933 max: 0.00054464 average: 1.71677e-06
PIMPLE: iteration 7
smoothSolver:  Solving for Ux, Initial residual = 0.181532, Final residual = 0.000113548, No Iterations 1
smoothSolver:  Solving for Uy, Initial residual = 0.171229, Final residual = 1.00198e-05, No Iterations 1
smoothSolver:  Solving for Uz, Initial residual = 0.287249, Final residual = 2.27646e-06, No Iterations 1
Pressure gradient source: uncorrected Ubar = 0.195, pressure gradient = 162501
GAMG:  Solving for p, Initial residual = 0.636674, Final residual = 0.000559194, No Iterations 4
time step continuity errors : sum local = 3.76838e-08, global = -3.66521e-20, cumulative = -1.16143e-17
Pressure gradient source: uncorrected Ubar = 0.195, pressure gradient = 162501
GAMG:  Solving for p, Initial residual = 0.520716, Final residual = 0.000494388, No Iterations 4
time step continuity errors : sum local = 2.85106e-08, global = -3.52074e-20, cumulative = -1.16495e-17
Pressure gradient source: uncorrected Ubar = 0.195, pressure gradient = 162501
GAMG:  Solving for p, Initial residual = 0.520709, Final residual = 0.000486735, No Iterations 4
time step continuity errors : sum local = 2.80703e-08, global = -3.85655e-20, cumulative = -1.16881e-17
Pressure gradient source: uncorrected Ubar = 0.195, pressure gradient = 162501
smoothSolver:  Solving for k, Initial residual = 0.00119595, Final residual = 1.98845e-07, No Iterations 1
bounding k, min: -0.000414604 max: 0.000539209 average: 1.71676e-06
PIMPLE: iteration 8
smoothSolver:  Solving for Ux, Initial residual = 0.159671, Final residual = 6.87639e-05, No Iterations 1
smoothSolver:  Solving for Uy, Initial residual = 0.143961, Final residual = 1.53166e-05, No Iterations 1
smoothSolver:  Solving for Uz, Initial residual = 0.200961, Final residual = 1.46984e-06, No Iterations 1
Pressure gradient source: uncorrected Ubar = 0.195, pressure gradient = 162501
GAMG:  Solving for p, Initial residual = 0.625918, Final residual = 0.000459978, No Iterations 4
time step continuity errors : sum local = 2.52502e-08, global = -3.84197e-20, cumulative = -1.17265e-17
Pressure gradient source: uncorrected Ubar = 0.195, pressure gradient = 162501
GAMG:  Solving for p, Initial residual = 0.511868, Final residual = 0.000402028, No Iterations 4
time step continuity errors : sum local = 1.88896e-08, global = -3.63678e-20, cumulative = -1.17629e-17
Pressure gradient source: uncorrected Ubar = 0.195, pressure gradient = 162501
GAMG:  Solving for p, Initial residual = 0.511866, Final residual = 0.000396925, No Iterations 4
time step continuity errors : sum local = 1.86483e-08, global = -3.63618e-20, cumulative = -1.17992e-17
Pressure gradient source: uncorrected Ubar = 0.195, pressure gradient = 162501
smoothSolver:  Solving for k, Initial residual = 0.00113105, Final residual = 1.90471e-07, No Iterations 1
bounding k, min: -0.000414117 max: 0.000537634 average: 1.71674e-06
PIMPLE: iteration 9
smoothSolver:  Solving for Ux, Initial residual = 0.140465, Final residual = 3.5286e-05, No Iterations 1
smoothSolver:  Solving for Uy, Initial residual = 0.129588, Final residual = 1.98387e-05, No Iterations 1
smoothSolver:  Solving for Uz, Initial residual = 0.152034, Final residual = 1.10339e-06, No Iterations 1
Pressure gradient source: uncorrected Ubar = 0.195, pressure gradient = 162501
GAMG:  Solving for p, Initial residual = 0.637733, Final residual = 0.000398675, No Iterations 4
time step continuity errors : sum local = 1.69081e-08, global = -3.57891e-20, cumulative = -1.1835e-17
Pressure gradient source: uncorrected Ubar = 0.195, pressure gradient = 162501
GAMG:  Solving for p, Initial residual = 0.505863, Final residual = 0.00033678, No Iterations 4
time step continuity errors : sum local = 1.25962e-08, global = -3.68713e-20, cumulative = -1.18719e-17
Pressure gradient source: uncorrected Ubar = 0.195, pressure gradient = 162501
GAMG:  Solving for p, Initial residual = 0.505869, Final residual = 0.000333819, No Iterations 4
time step continuity errors : sum local = 1.24877e-08, global = -3.65294e-20, cumulative = -1.19084e-17
Pressure gradient source: uncorrected Ubar = 0.195, pressure gradient = 162501
smoothSolver:  Solving for k, Initial residual = 0.00115401, Final residual = 1.90328e-07, No Iterations 1
bounding k, min: -0.00041107 max: 0.000536953 average: 1.71666e-06
PIMPLE: iteration 10
smoothSolver:  Solving for Ux, Initial residual = 0.613945, Final residual = 2.1043e-08, No Iterations 3
smoothSolver:  Solving for Uy, Initial residual = 0.705304, Final residual = 4.05211e-08, No Iterations 3
smoothSolver:  Solving for Uz, Initial residual = 0.741978, Final residual = 1.50568e-07, No Iterations 2
Pressure gradient source: uncorrected Ubar = 0.195, pressure gradient = 162501
GAMG:  Solving for p, Initial residual = 0.995126, Final residual = 0.000312772, No Iterations 4
time step continuity errors : sum local = 2.79708e-08, global = -1.84957e-19, cumulative = -1.20934e-17
Pressure gradient source: uncorrected Ubar = 0.195, pressure gradient = 162501
GAMG:  Solving for p, Initial residual = 0.840005, Final residual = 0.000796338, No Iterations 22
time step continuity errors : sum local = 4.4959e-10, global = -1.8301e-19, cumulative = -1.22764e-17
Pressure gradient source: uncorrected Ubar = 0.195, pressure gradient = 162501
GAMG:  Solving for p, Initial residual = 0.0281185, Final residual = 9.89986e-07, No Iterations 57
time step continuity errors : sum local = 1.33585e-13, global = -1.82722e-19, cumulative = -1.24591e-17
Pressure gradient source: uncorrected Ubar = 0.195, pressure gradient = 162501
smoothSolver:  Solving for k, Initial residual = 0.0137856, Final residual = 6.46283e-07, No Iterations 1
bounding k, min: -0.000191622 max: 0.000139947 average: 1.707e-06
PIMPLE: not converged within 10 iterations
ExecutionTime = 1891.56 s  ClockTime = 2109 s

fieldAverage fieldAverage1 write:
    Calculating averages

Courant Number mean: 0.0357248 max: 0.0357331
deltaT = 0.000694222
Time = 0.00419736

PIMPLE: iteration 1
smoothSolver:  Solving for Ux, Initial residual = 1, Final residual = 3.66568e-05, No Iterations 1
smoothSolver:  Solving for Uy, Initial residual = 0.0293382, Final residual = 3.37329e-06, No Iterations 1
smoothSolver:  Solving for Uz, Initial residual = 0.0496329, Final residual = 6.43069e-07, No Iterations 1
Pressure gradient source: uncorrected Ubar = 22.7518, pressure gradient = -162523
GAMG:  Solving for p, Initial residual = 0.99995, Final residual = 0.000656934, No Iterations 4
time step continuity errors : sum local = 2.37344e-07, global = 3.31996e-19, cumulative = -1.21271e-17
Pressure gradient source: uncorrected Ubar = 22.7503, pressure gradient = -162501
GAMG:  Solving for p, Initial residual = 0.538736, Final residual = 0.000365885, No Iterations 4
time step continuity errors : sum local = 1.71879e-07, global = 2.51364e-19, cumulative = -1.18758e-17
Pressure gradient source: uncorrected Ubar = 22.7503, pressure gradient = -162501
GAMG:  Solving for p, Initial residual = 0.538464, Final residual = 0.00036336, No Iterations 4
time step continuity errors : sum local = 1.70723e-07, global = 1.66256e-19, cumulative = -1.17095e-17
Pressure gradient source: uncorrected Ubar = 22.7503, pressure gradient = -162501
smoothSolver:  Solving for k, Initial residual = 0.624905, Final residual = nan, No Iterations 1000
PIMPLE: iteration 2
smoothSolver:  Solving for Ux, Initial residual = nan, Final residual = nan, No Iterations 1000
smoothSolver:  Solving for Uy, Initial residual = nan, Final residual = nan, No Iterations 1000
smoothSolver:  Solving for Uz, Initial residual = nan, Final residual = nan, No Iterations 1000
Pressure gradient source: uncorrected Ubar = -nan, pressure gradient = -nan
GAMG:  Solving for p, Initial residual = nan, Final residual = nan, No Iterations 1000
time step continuity errors : sum local = nan, global = nan, cumulative = nan
Pressure gradient source: uncorrected Ubar = nan, pressure gradient = nan
GAMG:  Solving for p, Initial residual = nan, Final residual = nan, No Iterations 1000
--------------------------------------------------------------------------
MPI_ABORT was invoked on rank 1 in communicator MPI_COMM_WORLD 
with errorcode 1.

NOTE: invoking MPI_ABORT causes Open MPI to kill all MPI processes.
You may or may not see output from other processes, depending on
exactly when Open MPI kills them.
--------------------------------------------------------------------------
